data_global
 
_audit_creation_method                 Xtal3.6
_audit_creation_date                   01-11-22
_audit_update_record                   ?
 
#==============================================================================
#   (Publishing Staff Use Only)
 
_journal_date_recd_electronic          ?
_journal_date_to_coeditor              ?
_journal_date_from_coeditor            ?
_journal_date_accepted                 ?
_journal_date_printers_first           ?
_journal_date_printers_final           ?
_journal_date_proofs_out               ?
_journal_date_proofs_in                ?
_journal_coeditor_name                 ?
_journal_coeditor_code                 ?
_journal_coeditor_notes
; ?
;
_journal_techeditor_code               ?
_journal_techeditor_notes
; ?
;
_journal_coden_ASTM                    ?
_journal_name_full                     ?
_journal_year                          ?
_journal_volume                        ?
_journal_issue                         ?
_journal_page_first                    ?
_journal_page_last                     ?
_journal_suppl_publ_number             ?
_journal_suppl_publ_pages              ?
 
#=======================================================================
 
# 1. SUBMISSION DETAILS
#----------------------
 
_publ_contact_author_name
     'Skelton, B. W.'
_publ_contact_author_address
;
   Department of Chemistry
   University of Western Australia
   35 Stirling Highway
   Crawley
   Western Australia 6009
   Australia
;
_publ_contact_author_email            bws@crystal.uwa.edu.au
_publ_contact_author_fax               (+61)_08_9380_1118
_publ_contact_author_phone             (+61)_08-9380_3481
 
_publ_contact_letter
;    ?                                      #<< contact letter
;
 
_publ_requested_journal     ?
_publ_requested_category     ?
 
_publ_section_title
;    ?                                      #<< paper title text
;
_publ_section_title_footnote
;    ?                                      #<< paper footnote text
;
 
loop_
_publ_author_name
_publ_author_footnote
_publ_author_address
 
 
'Skelton, Brian W.' .
; Department of Chemistry,
University of Western Australia,
35 Stirling Highway,
Crawley,
WA 6009,
Australia.
;
 
 
 
 
_publ_section_synopsis
;    ?                                     #<< synopsis if FI,CI,CM,CO papers
;
_publ_section_abstract
;    ?                                     #<< abstract text
;
_publ_section_comment
;    ?                                     #<< scientific commentary text
;
 
_publ_section_exptl_prep
;    ?                        #<< material & crystal preparation text
;
 
_publ_section_exptl_refinement
;    ?                        #<< crystallographic methods used
;
 
_publ_section_acknowledgements
;    ?                                     #<< acknowledgements text
;
 
_publ_section_references
;
 Sheldrick, G M. (1996). SADABS. Program for Empirical Absorption Correction
  of Area Detector Data.  University of Gottingen, Germany.
 
 Siemens (1995). SMART and SAINT. Area-Detector Control and Integration
 Software. Siemens Analytical X-ray Systems Inc., Madison, Wisconsin, USA.
 
 Hall, S.R., King, G.S.D., and Stewart., J.M. (1995).
 The Xtal 3.5 User's Manual.  University of Western Australia, Lamb: Perth.
;
_publ_section_figure_captions
;    ?                                     #<< figure captions
;
 
 
#=======================================================================
#  Data block for single structure (one for each study in the paper)
#=======================================================================
 
 
data_mo7c
 
 
# 2. EXPERIMENTAL DATA
#---------------------
 
 
 
 # Formula sums constructed from STARTX celcon lines and and ADDATM
 # atom sites disagree! Which formula sum is more correct?
 #                                     C119 H183 N12 O15.5 S.5 U2
_chemical_formula_sum                 'C119 H172.5 N12 O15.5 S.5 U2'
_chemical_formula_moiety               ?
_chemical_formula_weight               2511.35
_chemical_melting_point                ?
 
_symmetry_cell_setting                 triclinic
_symmetry_space_group_name_H-M         P_-1
_symmetry_space_group_name_Hall        -p_1
 
loop_
_symmetry_equiv_pos_as_xyz
  +x,+y,+z  -x,-y,-z
 
_cell_length_a                         21.4450(10)
_cell_length_b                         23.3490(10)
_cell_length_c                         28.256(2)
_cell_angle_alpha                      89.153(2)
_cell_angle_beta                       76.002(2)
_cell_angle_gamma                      66.2570(10)
_cell_volume                           12511.8(12)
_cell_formula_units_Z                  4
 
_exptl_crystal_density_diffrn          1.339
_exptl_crystal_density_meas            ?
_exptl_crystal_density_method          ?
_diffrn_radiation_type                'Mo K\a'
_diffrn_radiation_wavelength           .71073
 
_cell_measurement_reflns_used          8192
_cell_measurement_theta_min            1.4
_cell_measurement_theta_max            20.3
_cell_measurement_temperature          153
 
_exptl_absorpt_coefficient_mu          2.656
_exptl_crystal_description             bar
_exptl_crystal_size_max                .35
_exptl_crystal_size_mid                .15
_exptl_crystal_size_min                .11
_exptl_crystal_size_rad                ?
_exptl_crystal_colour                  red
 
_diffrn_measurement_device_type
;
Bruker SMART CCD diffractometer
;
_diffrn_measurement_method             '\w scans'
_diffrn_detector_area_resol_mean       ?
 
_exptl_absorpt_correction_type         multi-scan
_exptl_absorpt_process_details
;
 SADABS; Sheldrick, 1996
;
_exptl_absorpt_correction_T_min        .61
_exptl_absorpt_correction_T_max        .83
 
_diffrn_reflns_number                  217684
_reflns_number_total                   65035
_reflns_Friedel_coverage               0
_reflns_number_gt                      34658
_reflns_threshold_expression          'F    > 4.00 sig(F   )'
 
_diffrn_reflns_theta_max               28.9
_diffrn_reflns_theta_full              ?
_diffrn_measured_fraction_theta_max    ?
_diffrn_measured_fraction_theta_full   ?
_diffrn_reflns_av_R_equivalents        ?
_diffrn_reflns_limit_h_min             -28
_diffrn_reflns_limit_h_max             29
_diffrn_reflns_limit_k_min             -31
_diffrn_reflns_limit_k_max             31
_diffrn_reflns_limit_l_min             0
_diffrn_reflns_limit_l_max             38
_diffrn_standards_number               ?
_diffrn_standards_interval_count       ?
_diffrn_standards_interval_time        ?      
_diffrn_standards_decay_%              ?     
 
 
_refine_ls_structure_factor_coef       F
_refine_ls_R_factor_gt                 .052
_refine_ls_wR_factor_ref               .064
_refine_ls_goodness_of_fit_ref         1.336
_refine_ls_number_reflns               34658
_refine_ls_number_parameters           2597
_refine_ls_weighting_scheme            calc
_refine_ls_weighting_details           ?
_refine_ls_hydrogen_treatment          noref
_refine_ls_shift/su_max                .049
_refine_diff_density_min               -1.74
_refine_diff_density_max               4.259
 
_refine_ls_extinction_method           ?
_refine_ls_extinction_coef             ?        
_refine_ls_abs_structure_details       ?
_refine_ls_abs_structure_Flack         ?
 
 
# 3. Information for the "methods" section
#-----------------------------------------
 
_computing_data_collection             'Siemens SMART (Siemens, 1995)'
_computing_cell_refinement             'Siemens SAINT (Siemens, 1995)'
_computing_data_reduction             'xtal ADDREF SORTRF'
_computing_structure_solution          xtal
_computing_structure_refinement       'xtal CRYLSQ'
_computing_molecular_graphics          xtal
_computing_publication_material       'xtal BONDLA CIFIO'
 
 
# 4. Supplementary data for validation and tables
#------------------------------------------------
 
loop_
_atom_type_symbol
_atom_type_description
_atom_type_oxidation_number
_atom_type_number_in_cell
_atom_type_scat_dispersion_real
_atom_type_scat_dispersion_imag
_atom_type_scat_source
  C  ?  0  476  .002  .002  'Int Tables Vol IV Tables 2.2B and 2.3.1'
  H  ?  0  732  0  0  'Int Tables Vol IV Tables 2.2B and 2.3.1'
  N  ?  0  48  .004  .003  'Int Tables Vol IV Tables 2.2B and 2.3.1'
  O  ?  0  62  .008  .006  'Int Tables Vol IV Tables 2.2B and 2.3.1'
  S  ?  0  2  .11  .124  'Int Tables Vol IV Tables 2.2B and 2.3.1'
 Tc  ?  0  8  -10.673   9.654  'Int Tables Vol IV Tables 2.2B and 2.3.1'
 
loop_
_atom_site_label
_atom_site_fract_x
_atom_site_fract_y
_atom_site_fract_z
_atom_site_U_iso_or_equiv
_atom_site_adp_type
_atom_site_calc_flag
_atom_site_calc_attached_atom
_atom_site_occupancy
_atom_site_disorder_assembly
_atom_site_disorder_group
 Tc11  .403027(15)  .189170(14)  .451976(10)  .0190(3)  Uani  ?  ?  1.00000  ?
  ?
 Tc12  .209733(15)  .155446(15)  .457186(10)  .0209(3)  Uani  ?  ?  1.00000  ?
  ?
 Tc21  .799381(15)  .344724(14)  .026019(11)  .0197(3)  Uani  ?  ?  1.00000  ?
  ?
 Tc22  .605978(15)  .311239(14)  .036124(10)  .0171(2)  Uani  ?  ?  1.00000  ?
  ?
  O10  .2876(3)  .2042(3)  .45305(16)  .021(5)  Uani  ?  ?  1.00000  ?  ?
  O1101  .3721(3)  .2719(2)  .44594(19)  .024(5)  Uani  ?  ?  1.00000  ?  ?
  O1102  .4327(3)  .1064(2)  .46065(19)  .025(5)  Uani  ?  ?  1.00000  ?  ?
  O1201  .1480(3)  .2330(3)  .4520(2)  .029(5)  Uani  ?  ?  1.00000  ?  ?
  O1202  .2728(3)  .0789(3)  .4625(2)  .027(5)  Uani  ?  ?  1.00000  ?  ?
  O20  .7232(3)  .2945(3)  .03217(16)  .020(5)  Uani  ?  ?  1.00000  ?  ?
  O2101  .8642(3)  .2672(3)  .0283(2)  .029(5)  Uani  ?  ?  1.00000  ?  ?
  O2102  .7358(3)  .4213(3)  .02132(19)  .026(5)  Uani  ?  ?  1.00000  ?  ?
  O2201  .6359(3)  .2285(2)  .04295(18)  .024(5)  Uani  ?  ?  1.00000  ?  ?
  O2202  .5773(3)  .3935(2)  .02919(18)  .022(5)  Uani  ?  ?  1.00000  ?  ?
  O111  .5095(3)  .1749(2)  .40427(17)  .021(5)  Uani  ?  ?  1.00000  ?  ?
  C111  .5420(4)  .2120(4)  .3852(3)  .019(7)  Uani  ?  ?  1.00000  ?  ?
  C112  .5297(4)  .2411(3)  .3422(3)  .018(6)  Uani  ?  ?  1.00000  ?  ?
  C113  .5669(4)  .2760(4)  .3214(3)  .021(7)  Uani  ?  ?  1.00000  ?  ?
  C114  .6153(4)  .2852(4)  .3419(3)  .021(7)  Uani  ?  ?  1.00000  ?  ?
  C1141  .6588(4)  .3209(4)  .3162(3)  .028(8)  Uani  ?  ?  1.00000  ?  ?
  C1142  .6101(7)  .3833(6)  .3019(5)  .082(16)  Uani  ?  ?  1.00000  ?  ?
  C1143  .7074(8)  .2834(7)  .2684(5)  .100(18)  Uani  ?  ?  1.00000  ?  ?
  C1144  .6985(7)  .3353(7)  .3474(4)  .078(18)  Uani  ?  ?  1.00000  ?  ?
  C115  .6262(4)  .2579(4)  .3854(3)  .020(6)  Uani  ?  ?  1.00000  ?  ?
  C116  .5898(4)  .2226(3)  .4073(2)  .015(6)  Uani  ?  ?  1.00000  ?  ?
  C11  .5964(4)  .1984(4)  .4562(2)  .022(7)  Uani  ?  ?  1.00000  ?  ?
  O121  .3982(3)  .1637(2)  .37005(17)  .020(5)  Uani  ?  ?  1.00000  ?  ?
  C121  .4538(4)  .1334(4)  .3318(2)  .019(6)  Uani  ?  ?  1.00000  ?  ?
  C122  .4724(4)  .0699(3)  .3165(2)  .017(6)  Uani  ?  ?  1.00000  ?  ?
  C123  .5302(4)  .0403(3)  .2767(3)  .023(7)  Uani  ?  ?  1.00000  ?  ?
  C124  .5711(4)  .0695(4)  .2510(3)  .023(7)  Uani  ?  ?  1.00000  ?  ?
  C1241  .6349(4)  .0338(4)  .2075(3)  .027(7)  Uani  ?  ?  1.00000  ?  ?
  C1242  .6949(5)  -.0135(5)  .2266(3)  .041(9)  Uani  ?  ?  1.00000  ?  ?
  C1243  .6147(5)  -.0003(4)  .1724(3)  .036(8)  Uani  ?  ?  1.00000  ?  ?
  C1244  .6631(5)  .0778(4)  .1786(3)  .046(9)  Uani  ?  ?  1.00000  ?  ?
  C125  .5514(4)  .1314(4)  .2669(2)  .018(7)  Uani  ?  ?  1.00000  ?  ?
  C126  .4934(4)  .1641(4)  .3055(2)  .018(6)  Uani  ?  ?  1.00000  ?  ?
  C12  .4761(4)  .2320(3)  .3201(3)  .018(6)  Uani  ?  ?  1.00000  ?  ?
  O131  .2919(3)  .1437(2)  .37065(18)  .022(5)  Uani  ?  ?  1.00000  ?  ?
  C131  .3048(4)  .0997(4)  .3322(3)  .024(7)  Uani  ?  ?  1.00000  ?  ?
  C132  .2525(4)  .1116(4)  .3077(3)  .021(7)  Uani  ?  ?  1.00000  ?  ?
  C133  .2624(4)  .0675(4)  .2712(3)  .025(7)  Uani  ?  ?  1.00000  ?  ?
  C134  .3224(5)  .0127(4)  .2586(3)  .028(8)  Uani  ?  ?  1.00000  ?  ?
  C1341  .3310(6)  -.0362(5)  .2183(3)  .043(10)  Uani  ?  ?  1.00000  ?  ?
  C1342  .2743(7)  -.0629(6)  .2358(4)  .073(16)  Uani  ?  ?  1.00000  ?  ?
  C1343  .3182(7)  -.0037(5)  .1712(4)  .065(13)  Uani  ?  ?  1.00000  ?  ?
  C1344  .4053(6)  -.0905(5)  .2056(4)  .055(12)  Uani  ?  ?  1.00000  ?  ?
  C135  .3763(5)  .0032(4)  .2823(3)  .028(8)  Uani  ?  ?  1.00000  ?  ?
  C136  .3677(4)  .0463(4)  .3196(3)  .023(7)  Uani  ?  ?  1.00000  ?  ?
  C13  .4273(4)  .0380(4)  .3416(3)  .021(7)  Uani  ?  ?  1.00000  ?  ?
  O141  .1672(3)  .1190(3)  .40561(18)  .026(5)  Uani  ?  ?  1.00000  ?  ?
  C141  .1140(4)  .1369(4)  .3843(3)  .025(7)  Uani  ?  ?  1.00000  ?  ?
  C142  .0525(5)  .1279(4)  .4037(3)  .034(8)  Uani  ?  ?  1.00000  ?  ?
  C143  -.0019(5)  .1483(4)  .3804(3)  .035(8)  Uani  ?  ?  1.00000  ?  ?
  C144  .0027(5)  .1756(5)  .3363(3)  .036(9)  Uani  ?  ?  1.00000  ?  ?
  C1441  -.0559(5)  .1932(6)  .3099(4)  .058(12)  Uani  ?  ?  1.00000  ?  ?
  C1442  -.0795(9)  .2593(8)  .2988(7)  .12(2)  Uani  ?  ?  1.00000  ?  ?
  C1443  -.1140(8)  .1804(9)  .3320(6)  .11(2)  Uani  ?  ?  1.00000  ?  ?
  C1444  -.0285(9)  .1613(9)  .2586(6)  .12(3)  Uani  ?  ?  1.00000  ?  ?
  C145  .0655(4)  .1828(4)  .3165(3)  .029(8)  Uani  ?  ?  1.00000  ?  ?
  C146  .1202(4)  .1645(4)  .3398(3)  .025(7)  Uani  ?  ?  1.00000  ?  ?
  C14  .1867(4)  .1729(4)  .3179(3)  .025(7)  Uani  ?  ?  1.00000  ?  ?
  O151  .1208(3)  .1370(3)  .51027(18)  .024(5)  Uani  ?  ?  1.00000  ?  ?
  C151  .0506(4)  .1709(4)  .5196(3)  .030(8)  Uani  ?  ?  1.00000  ?  ?
  C152  .0177(5)  .2223(5)  .5542(3)  .037(9)  Uani  ?  ?  1.00000  ?  ?
  C153  -.0569(5)  .2537(5)  .5661(3)  .040(9)  Uani  ?  ?  1.00000  ?  ?
  C154  -.0985(5)  .2365(5)  .5438(3)  .049(10)  Uani  ?  ?  1.00000  ?  ?
  C1541  -.1793(5)  .2731(6)  .5578(4)  .063(12)  Uani  ?  ?  1.00000  ?  ?
  C1542  -.2014(12)  .3426(10)  .5565(8)  .053(6)  Uiso  ?  ?  .50000  ?  ?
  C1543  -.2143(13)  .2457(11)  .5262(8)  .064(7)  Uiso  ?  ?  .50000  ?  ?
  C1544  -.2049(12)  .2598(11)  .6111(8)  .056(6)  Uiso  ?  ?  .50000  ?  ?
  C1542'  -.205(2)  .3223(18)  .5946(14)  .138(14)  Uiso  ?  ?  .50000  ?  ?
  C1543'  -.209(2)  .2858(16)  .5163(12)  .118(12)  Uiso  ?  ?  .50000  ?  ?
  C1544'  -.208(2)  .232(2)  .5882(16)  .166(17)  Uiso  ?  ?  .50000  ?  ?
  C155  -.0648(5)  .1868(5)  .5080(3)  .043(9)  Uani  ?  ?  1.00000  ?  ?
  C156  .0093(5)  .1532(5)  .4954(3)  .040(9)  Uani  ?  ?  1.00000  ?  ?
  C15  .0415(4)  .1036(4)  .4546(3)  .030(8)  Uani  ?  ?  1.00000  ?  ?
  O161  .2115(3)  .1858(3)  .54081(18)  .027(5)  Uani  ?  ?  1.00000  ?  ?
  C161  .1811(4)  .1728(4)  .5857(3)  .025(7)  Uani  ?  ?  1.00000  ?  ?
  C162  .2241(4)  .1330(4)  .6136(3)  .024(7)  Uani  ?  ?  1.00000  ?  ?
  C163  .1935(4)  .1189(4)  .6588(3)  .022(7)  Uani  ?  ?  1.00000  ?  ?
  C164  .1194(4)  .1445(4)  .6785(3)  .028(8)  Uani  ?  ?  1.00000  ?  ?
  C1641  .0899(5)  .1271(4)  .7285(3)  .030(8)  Uani  ?  ?  1.00000  ?  ?
  C1642  .1173(5)  .0547(5)  .7293(3)  .045(10)  Uani  ?  ?  1.00000  ?  ?
  C1643  .0091(5)  .1551(5)  .7431(3)  .038(9)  Uani  ?  ?  1.00000  ?  ?
  C1644  .1136(5)  .1538(5)  .7674(3)  .043(10)  Uani  ?  ?  1.00000  ?  ?
  C165  .0797(4)  .1831(4)  .6506(3)  .032(8)  Uani  ?  ?  1.00000  ?  ?
  C166  .1078(4)  .1981(4)  .6036(3)  .029(8)  Uani  ?  ?  1.00000  ?  ?
  C16  .0600(4)  .2456(4)  .5775(3)  .033(8)  Uani  ?  ?  1.00000  ?  ?
  O171  .3178(3)  .2077(3)  .53880(17)  .025(5)  Uani  ?  ?  1.00000  ?  ?
  C171  .3315(4)  .2050(4)  .5840(3)  .022(7)  Uani  ?  ?  1.00000  ?  ?
  C172  .3497(4)  .2504(4)  .6006(3)  .022(7)  Uani  ?  ?  1.00000  ?  ?
  C173  .3640(4)  .2481(4)  .6458(3)  .024(7)  Uani  ?  ?  1.00000  ?  ?
  C174  .3620(4)  .2006(4)  .6765(3)  .025(7)  Uani  ?  ?  1.00000  ?  ?
  C1741  .3774(5)  .2004(4)  .7263(3)  .032(8)  Uani  ?  ?  1.00000  ?  ?
  C1742  .3182(10)  .2615(6)  .7581(4)  .11(2)  Uani  ?  ?  1.00000  ?  ?
  C1743  .4444(9)  .2053(9)  .7222(5)  .11(2)  Uani  ?  ?  1.00000  ?  ?
  C1744  .3743(9)  .1456(7)  .7534(4)  .09(2)  Uani  ?  ?  1.00000  ?  ?
  C175  .3424(4)  .1561(4)  .6588(3)  .022(7)  Uani  ?  ?  1.00000  ?  ?
  C176  .3271(4)  .1568(4)  .6129(3)  .018(6)  Uani  ?  ?  1.00000  ?  ?
  C17  .3038(4)  .1099(4)  .5970(3)  .023(7)  Uani  ?  ?  1.00000  ?  ?
  O181  .4618(3)  .1995(2)  .50810(17)  .020(5)  Uani  ?  ?  1.00000  ?  ?
  C181  .4791(4)  .2459(4)  .5184(3)  .021(7)  Uani  ?  ?  1.00000  ?  ?
  C182  .5450(4)  .2457(4)  .4973(2)  .021(7)  Uani  ?  ?  1.00000  ?  ?
  C183  .5616(4)  .2938(4)  .5119(3)  .022(7)  Uani  ?  ?  1.00000  ?  ?
  C184  .5139(4)  .3444(4)  .5458(3)  .026(7)  Uani  ?  ?  1.00000  ?  ?
  C1841  .5354(5)  .3944(4)  .5625(3)  .037(9)  Uani  ?  ?  1.00000  ?  ?
  C1842  .5710(7)  .3708(6)  .6032(5)  .073(15)  Uani  ?  ?  1.00000  ?  ?
  C1843  .5861(7)  .4078(6)  .5194(4)  .081(16)  Uani  ?  ?  1.00000  ?  ?
  C1844  .4722(6)  .4568(5)  .5815(5)  .067(13)  Uani  ?  ?  1.00000  ?  ?
  C185  .4466(4)  .3463(4)  .5637(3)  .027(7)  Uani  ?  ?  1.00000  ?  ?
  C186  .4280(4)  .2990(4)  .5510(3)  .023(7)  Uani  ?  ?  1.00000  ?  ?
  C18  .3543(4)  .3030(4)  .5697(3)  .024(7)  Uani  ?  ?  1.00000  ?  ?
  O211  .8500(3)  .3808(3)  .07066(18)  .024(5)  Uani  ?  ?  1.00000  ?  ?
  C211  .9093(4)  .3578(4)  .0868(3)  .020(7)  Uani  ?  ?  1.00000  ?  ?
  C212  .9095(4)  .3283(4)  .1303(3)  .022(7)  Uani  ?  ?  1.00000  ?  ?
  C213  .9713(4)  .3047(4)  .1459(3)  .027(7)  Uani  ?  ?  1.00000  ?  ?
  C214  1.0327(4)  .3102(4)  .1207(3)  .031(8)  Uani  ?  ?  1.00000  ?  ?
  C2141  1.1000(5)  .2823(5)  .1383(3)  .039(9)  Uani  ?  ?  1.00000  ?  ?
  C2142  1.1176(6)  .2111(6)  .1448(5)  .080(15)  Uani  ?  ?  1.00000  ?  ?
  C2143  1.0896(6)  .3160(7)  .1865(4)  .083(15)  Uani  ?  ?  1.00000  ?  ?
  C2144  1.1643(5)  .2827(6)  .1017(4)  .063(12)  Uani  ?  ?  1.00000  ?  ?
  C215  1.0296(4)  .3416(4)  .0786(3)  .026(7)  Uani  ?  ?  1.00000  ?  ?
  C216  .9702(4)  .3650(4)  .0605(3)  .020(6)  Uani  ?  ?  1.00000  ?  ?
  C21  .9729(4)  .3923(4)  .0122(3)  .027(8)  Uani  ?  ?  1.00000  ?  ?
  O221  .7300(3)  .3542(2)  .11234(17)  .020(5)  Uani  ?  ?  1.00000  ?  ?
  C221  .7243(4)  .3939(4)  .1510(3)  .022(7)  Uani  ?  ?  1.00000  ?  ?
  C222  .6629(4)  .4489(4)  .1677(3)  .019(7)  Uani  ?  ?  1.00000  ?  ?
  C223  .6590(4)  .4894(4)  .2047(3)  .021(7)  Uani  ?  ?  1.00000  ?  ?
  C224  .7147(4)  .4774(4)  .2265(3)  .027(8)  Uani  ?  ?  1.00000  ?  ?
  C2241  .7126(5)  .5231(4)  .2652(3)  .031(8)  Uani  ?  ?  1.00000  ?  ?
  C2242  .7268(6)  .4905(5)  .3114(3)  .054(12)  Uani  ?  ?  1.00000  ?  ?
  C2243  .6399(6)  .5789(5)  .2821(4)  .048(11)  Uani  ?  ?  1.00000  ?  ?
  C2244  .7670(7)  .5490(5)  .2453(4)  .057(13)  Uani  ?  ?  1.00000  ?  ?
  C225  .7737(4)  .4217(4)  .2096(3)  .025(8)  Uani  ?  ?  1.00000  ?  ?
  C226  .7802(4)  .3795(4)  .1729(3)  .020(7)  Uani  ?  ?  1.00000  ?  ?
  C22  .8449(4)  .3188(4)  .1574(3)  .024(7)  Uani  ?  ?  1.00000  ?  ?
  O231  .6224(3)  .3363(2)  .11798(17)  .018(4)  Uani  ?  ?  1.00000  ?  ?
  C231  .5699(4)  .3673(4)  .1600(2)  .016(6)  Uani  ?  ?  1.00000  ?  ?
  C232  .5335(4)  .3345(4)  .1863(2)  .017(6)  Uani  ?  ?  1.00000  ?  ?
  C233  .4776(4)  .3672(4)  .2271(3)  .019(7)  Uani  ?  ?  1.00000  ?  ?
  C234  .4595(4)  .4287(4)  .2430(3)  .019(6)  Uani  ?  ?  1.00000  ?  ?
  C2341  .3974(4)  .4639(4)  .2874(3)  .027(7)  Uani  ?  ?  1.00000  ?  ?
  C2342  .3382(5)  .5149(4)  .2688(3)  .038(8)  Uani  ?  ?  1.00000  ?  ?
  C2343  .3679(5)  .4212(4)  .3160(3)  .037(9)  Uani  ?  ?  1.00000  ?  ?
  C2344  .4190(5)  .4978(5)  .3222(3)  .038(9)  Uani  ?  ?  1.00000  ?  ?
  C235  .4998(4)  .4588(4)  .2162(3)  .020(7)  Uani  ?  ?  1.00000  ?  ?
  C236  .5555(4)  .4278(4)  .1747(2)  .017(6)  Uani  ?  ?  1.00000  ?  ?
  C23  .5988(4)  .4624(4)  .1481(3)  .019(7)  Uani  ?  ?  1.00000  ?  ?
  O241  .5040(3)  .3278(2)  .09217(17)  .018(5)  Uani  ?  ?  1.00000  ?  ?
  C241  .4716(4)  .2919(3)  .1146(2)  .014(6)  Uani  ?  ?  1.00000  ?  ?
  C242  .4188(4)  .2849(3)  .0983(3)  .017(6)  Uani  ?  ?  1.00000  ?  ?
  C243  .3836(4)  .2502(4)  .1236(3)  .020(7)  Uani  ?  ?  1.00000  ?  ?
  C244  .3998(4)  .2221(4)  .1650(3)  .021(7)  Uani  ?  ?  1.00000  ?  ?
  C2441  .3609(4)  .1847(4)  .1950(3)  .027(8)  Uani  ?  ?  1.00000  ?  ?
  C2442  .4142(5)  .1169(4)  .1961(3)  .036(9)  Uani  ?  ?  1.00000  ?  ?
  C2443  .3021(5)  .1837(5)  .1758(3)  .036(9)  Uani  ?  ?  1.00000  ?  ?
  C2444  .3298(5)  .2162(4)  .2483(3)  .033(8)  Uani  ?  ?  1.00000  ?  ?
  C245  .4554(4)  .2272(4)  .1794(3)  .019(7)  Uani  ?  ?  1.00000  ?  ?
  C246  .4909(4)  .2621(4)  .1548(3)  .021(7)  Uani  ?  ?  1.00000  ?  ?
  C24  .5500(4)  .2674(4)  .1717(3)  .020(6)  Uani  ?  ?  1.00000  ?  ?
  O251  .5331(3)  .3064(2)  -.01102(17)  .019(4)  Uani  ?  ?  1.00000  ?  ?
  C251  .5142(4)  .2590(4)  -.0177(3)  .021(7)  Uani  ?  ?  1.00000  ?  ?
  C252  .5590(4)  .2070(4)  -.0514(3)  .023(7)  Uani  ?  ?  1.00000  ?  ?
  C253  .5357(4)  .1608(4)  -.0599(3)  .023(7)  Uani  ?  ?  1.00000  ?  ?
  C254  .4689(4)  .1642(4)  -.0359(3)  .024(7)  Uani  ?  ?  1.00000  ?  ?
  C2541  .4438(5)  .1144(4)  -.0481(3)  .036(9)  Uani  ?  ?  1.00000  ?  ?
  C2542  .5062(6)  .0489(5)  -.0581(4)  .060(13)  Uani  ?  ?  1.00000  ?  ?
  C2543  .4182(6)  .1296(5)  -.0954(4)  .054(12)  Uani  ?  ?  1.00000  ?  ?
  C2544  .3837(7)  .1128(6)  -.0082(4)  .071(14)  Uani  ?  ?  1.00000  ?  ?
  C255  .4256(4)  .2160(4)  -.0019(3)  .024(7)  Uani  ?  ?  1.00000  ?  ?
  C256  .4464(4)  .2629(3)  .0083(2)  .017(6)  Uani  ?  ?  1.00000  ?  ?
  C25  .4005(4)  .3133(4)  .0515(2)  .019(7)  Uani  ?  ?  1.00000  ?  ?
  O261  .6760(3)  .2942(3)  -.04981(17)  .020(5)  Uani  ?  ?  1.00000  ?  ?
  C261  .6564(4)  .2972(4)  -.0925(3)  .020(6)  Uani  ?  ?  1.00000  ?  ?
  C262  .6607(4)  .3433(4)  -.1240(3)  .018(6)  Uani  ?  ?  1.00000  ?  ?
  C263  .6423(4)  .3434(4)  -.1689(3)  .024(7)  Uani  ?  ?  1.00000  ?  ?
  C264  .6214(4)  .2999(4)  -.1838(3)  .026(7)  Uani  ?  ?  1.00000  ?  ?
  C2641  .6034(5)  .3010(4)  -.2329(3)  .033(9)  Uani  ?  ?  1.00000  ?  ?
  C2642  .5422(6)  .3649(5)  -.2346(4)  .057(12)  Uani  ?  ?  1.00000  ?  ?
  C2643  .6681(7)  .2960(7)  -.2738(3)  .087(16)  Uani  ?  ?  1.00000  ?  ?
  C2644  .5792(9)  .2512(6)  -.2415(4)  .09(2)  Uani  ?  ?  1.00000  ?  ?
  C265  .6175(4)  .2542(4)  -.1523(3)  .024(7)  Uani  ?  ?  1.00000  ?  ?
  C266  .6365(4)  .2511(4)  -.1072(3)  .022(7)  Uani  ?  ?  1.00000  ?  ?
  C26  .6322(4)  .1999(4)  -.0755(3)  .024(7)  Uani  ?  ?  1.00000  ?  ?
  O271  .7862(3)  .3134(3)  -.05811(17)  .022(5)  Uani  ?  ?  1.00000  ?  ?
  C271  .8111(4)  .3267(4)  -.1052(3)  .020(6)  Uani  ?  ?  1.00000  ?  ?
  C272  .8845(4)  .2990(4)  -.1267(3)  .021(7)  Uani  ?  ?  1.00000  ?  ?
  C273  .9094(4)  .3157(4)  -.1734(3)  .024(7)  Uani  ?  ?  1.00000  ?  ?
  C274  .8658(4)  .3557(4)  -.1994(3)  .020(6)  Uani  ?  ?  1.00000  ?  ?
  C2741  .8921(4)  .3725(4)  -.2515(3)  .029(8)  Uani  ?  ?  1.00000  ?  ?
  C2742  .8613(5)  .4447(5)  -.2519(3)  .041(10)  Uani  ?  ?  1.00000  ?  ?
  C2743  .9727(5)  .3483(5)  -.2671(3)  .037(9)  Uani  ?  ?  1.00000  ?  ?
  C2744  .8682(5)  .3452(5)  -.2881(3)  .041(9)  Uani  ?  ?  1.00000  ?  ?
  C275  .7926(4)  .3802(4)  -.1774(3)  .026(7)  Uani  ?  ?  1.00000  ?  ?
  C276  .7657(4)  .3661(4)  -.1308(2)  .019(6)  Uani  ?  ?  1.00000  ?  ?
  C27  .6851(4)  .3921(4)  -.1105(3)  .021(7)  Uani  ?  ?  1.00000  ?  ?
  O281  .8825(3)  .3607(3)  -.03506(18)  .023(5)  Uani  ?  ?  1.00000  ?  ?
  C281  .9533(4)  .3257(4)  -.0484(3)  .022(7)  Uani  ?  ?  1.00000  ?  ?
  C282  .9993(4)  .3408(4)  -.0284(3)  .024(7)  Uani  ?  ?  1.00000  ?  ?
  C283  1.0716(4)  .3059(4)  -.0449(3)  .029(8)  Uani  ?  ?  1.00000  ?  ?
  C284  1.1015(4)  .2537(4)  -.0796(3)  .032(8)  Uani  ?  ?  1.00000  ?  ?
  C2841  1.1815(4)  .2137(5)  -.0933(3)  .040(9)  Uani  ?  ?  1.00000  ?  ?
  C2842  1.2204(5)  .2557(6)  -.1072(5)  .080(13)  Uani  ?  ?  1.00000  ?  ?
  C2843  1.2020(6)  .1783(7)  -.0514(5)  .084(14)  Uani  ?  ?  1.00000  ?  ?
  C2844  1.2057(5)  .1673(6)  -.1369(4)  .070(12)  Uani  ?  ?  1.00000  ?  ?
  C285  1.0554(4)  .2386(4)  -.0976(3)  .030(8)  Uani  ?  ?  1.00000  ?  ?
  C286  .9821(4)  .2724(4)  -.0831(3)  .024(7)  Uani  ?  ?  1.00000  ?  ?
  C28  .9340(4)  .2514(4)  -.1017(3)  .026(7)  Uani  ?  ?  1.00000  ?  ?
  N101  -.0028(4)  .3512(4)  .4285(3)  .046(8)  Uani  ?  ?  1.00000  ?  ?
  C1011  .0059(7)  .3678(6)  .4776(4)  .075(15)  Uani  ?  ?  1.00000  ?  ?
  C1012  -.0150(6)  .2932(5)  .4304(4)  .057(12)  Uani  ?  ?  1.00000  ?  ?
  C101  .0592(5)  .3457(5)  .3870(4)  .050(10)  Uani  ?  ?  1.00000  ?  ?
  C102  .0366(6)  .3582(5)  .3391(4)  .048(10)  Uani  ?  ?  1.00000  ?  ?
  N102  -.0206(5)  .4193(4)  .3446(3)  .057(9)  Uani  ?  ?  1.00000  ?  ?
  C1021  .0055(9)  .4692(6)  .3406(7)  .11(2)  Uani  ?  ?  1.00000  ?  ?
  C1022  -.0589(7)  .4224(6)  .3078(5)  .072(15)  Uani  ?  ?  1.00000  ?  ?
  N201  .4473(3)  .4217(3)  -.0279(2)  .020(6)  Uani  ?  ?  1.00000  ?  ?
  C2011  .4985(4)  .4387(4)  -.0656(3)  .025(7)  Uani  ?  ?  1.00000  ?  ?
  C2012  .4178(4)  .4674(4)  .0177(3)  .023(7)  Uani  ?  ?  1.00000  ?  ?
  C201  .3879(4)  .4221(4)  -.0471(3)  .024(7)  Uani  ?  ?  1.00000  ?  ?
  C202  .4114(5)  .3725(4)  -.0899(3)  .035(9)  Uani  ?  ?  1.00000  ?  ?
  N202  .3444(6)  .3734(5)  -.0986(3)  .073(13)  Uani  ?  ?  1.00000  ?  ?
  C2021  .3581(12)  .3452(11)  -.1451(6)  .17(4)  Uani  ?  ?  1.00000  ?  ?
  C2022  .3147(9)  .3391(8)  -.0646(6)  .11(2)  Uani  ?  ?  1.00000  ?  ?
  N301  .1452(5)  .0215(4)  .5439(3)  .049(9)  Uani  ?  ?  1.00000  ?  ?
  C3011  .2192(6)  -.0000(7)  .5434(5)  .088(16)  Uani  ?  ?  1.00000  ?  ?
  C3012  .1287(9)  -.0271(7)  .5217(5)  .09(2)  Uani  ?  ?  1.00000  ?  ?
  C301  .1055(7)  .0357(7)  .5966(5)  .082(15)  Uani  ?  ?  1.00000  ?  ?
  C302  .0244(7)  .0684(6)  .6044(4)  .073(15)  Uani  ?  ?  1.00000  ?  ?
  N302  -.0093(6)  .0269(6)  .6118(4)  .089(15)  Uani  ?  ?  1.00000  ?  ?
  C3021  -.0165(9)  .0051(7)  .6619(5)  .11(2)  Uani  ?  ?  1.00000  ?  ?
  C3022  -.0800(8)  .0626(11)  .6022(7)  .16(3)  Uani  ?  ?  1.00000  ?  ?
  N401  .5485(4)  .0845(4)  .5307(3)  .048(8)  Uani  ?  ?  1.00000  ?  ?
  C4011  .4952(6)  .0683(6)  .5654(4)  .070(12)  Uani  ?  ?  1.00000  ?  ?
  C4012  .5858(6)  .0379(6)  .4876(5)  .090(14)  Uani  ?  ?  1.00000  ?  ?
  C401  .6069(8)  .0748(7)  .5484(6)  .028(4)  Uiso  ?  ?  .50000  ?  ?
  C401'  .5907(10)  .1159(8)  .5582(6)  .039(5)  Uiso  ?  ?  .50000  ?  ?
  C402  .5829(9)  .1233(8)  .5918(6)  .034(4)  Uiso  ?  ?  .50000  ?  ?
  C402'  .6324(10)  .0706(8)  .5899(7)  .050(6)  Uiso  ?  ?  .50000  ?  ?
  N402  .6477(7)  .1240(6)  .6008(4)  .035(4)  Uiso  ?  ?  .50000  ?  ?
  N402'  .6937(7)  .0829(6)  .5941(5)  .045(4)  Uiso  ?  ?  .50000  ?  ?
  C4021  .6302(13)  .1506(12)  .6501(8)  .078(8)  Uiso  ?  ?  .50000  ?  ?
  C4022  .6762(11)  .1580(10)  .5686(7)  .055(6)  Uiso  ?  ?  .50000  ?  ?
  C4021'  .6724(14)  .1450(13)  .6197(11)  .108(11)  Uiso  ?  ?  .50000  ?  ?
  C4022'  .7667(12)  .0240(10)  .5961(9)  .069(7)  Uiso  ?  ?  .50000  ?  ?
  N501  .8543(4)  .4752(4)  -.0683(3)  .041(8)  Uani  ?  ?  1.00000  ?  ?
  C5011  .7777(9)  .4940(8)  -.0694(7)  .039(17)  Uani  ?  ?  .50000  ?  ?
  C5011'  .8111(12)  .4733(9)  -.0967(8)  .05(2)  Uani  ?  ?  .50000  ?  ?
  C5012  .8599(12)  .5213(8)  -.0419(6)  .04(2)  Uani  ?  ?  .50000  ?  ?
  C5012'  .8045(11)  .5273(10)  -.0222(8)  .06(2)  Uani  ?  ?  .50000  ?  ?
  C501  .9005(9)  .4638(8)  -.1221(6)  .032(16)  Uani  ?  ?  .50000  ?  ?
  C501'  .9146(11)  .4902(10)  -.0865(7)  .04(2)  Uani  ?  ?  .50000  ?  ?
  C502  .9726(6)  .4405(5)  -.1269(3)  .046(11)  Uani  ?  ?  1.00000  ?  ?
  N502  1.0143(11)  .4275(10)  -.1757(7)  .08(3)  Uani  ?  ?  .50000  ?  ?
  N502'  1.0345(9)  .4457(9)  -.1346(5)  .050(19)  Uani  ?  ?  .50000  ?  ?
  C5021  1.0873(7)  .3863(7)  -.1753(5)  .086(16)  Uani  ?  ?  1.00000  ?  ?
  C5022  1.0165(15)  .4839(13)  -.1975(9)  .09(3)  Uani  ?  ?  .50000  ?  ?
  C5022'  1.0377(15)  .5025(11)  -.1518(9)  .10(3)  Uani  ?  ?  .50000  ?  ?
  N601  .9794(5)  .1539(4)  .0402(3)  .064(10)  Uani  ?  ?  1.00000  ?  ?
  C6011  1.0226(5)  .1918(5)  .0304(4)  .047(10)  Uani  ?  ?  1.00000  ?  ?
  C6012  .9607(6)  .1448(6)  .0933(4)  .070(14)  Uani  ?  ?  1.00000  ?  ?
  C601  1.0072(10)  .0949(8)  .0089(4)  .11(2)  Uani  ?  ?  1.00000  ?  ?
  C602  1.0189(9)  .0990(8)  -.0403(6)  .124(6)  Uiso  ?  ?  1.00000  ?  ?
  N602  1.0560(9)  .0325(8)  -.0730(6)  .205(9)  Uiso  ?  ?  1.00000  ?  ?
  C6021  1.1392(17)  .0118(17)  -.0822(12)  .40(2)  Uiso  ?  ?  1.00000  ?  ?
  C6022  1.0194(14)  .0348(13)  -.1240(10)  .255(14)  Uiso  ?  ?  1.00000  ?  ?
  N011  .1977(5)  .3954(5)  .3181(3)  .071(11)  Uani  ?  ?  1.00000  ?  ?
  C011  .2253(5)  .3569(5)  .3412(4)  .047(10)  Uani  ?  ?  1.00000  ?  ?
  C012  .2605(6)  .3072(5)  .3693(4)  .056(12)  Uani  ?  ?  1.00000  ?  ?
  N021  .3300(8)  .4751(8)  .4499(5)  .19(2)  Uani  ?  ?  1.00000  ?  ?
  C021  .3813(7)  .4312(6)  .4431(4)  .067(13)  Uani  ?  ?  1.00000  ?  ?
  C022  .4464(5)  .3759(5)  .4346(4)  .044(10)  Uani  ?  ?  1.00000  ?  ?
  N031  .1720(7)  .3908(5)  .6607(4)  .089(15)  Uani  ?  ?  1.00000  ?  ?
  C031  .1701(6)  .3430(5)  .6727(4)  .060(12)  Uani  ?  ?  1.00000  ?  ?
  C032  .1677(6)  .2850(5)  .6863(4)  .064(12)  Uani  ?  ?  1.00000  ?  ?
  C042  .7214(6)  .1149(5)  .3090(4)  .055(3)  Uiso  ?  ?  1.00000  ?  ?
  C041  .7543(6)  .1119(6)  .3475(4)  .065(13)  Uani  ?  ?  1.00000  ?  ?
  N041  .7787(6)  .1109(5)  .3798(4)  .085(3)  Uiso  ?  ?  1.00000  ?  ?
  N051  .8350(7)  .1236(6)  .1899(5)  .111(16)  Uani  ?  ?  1.00000  ?  ?
  C051  .7951(6)  .1607(6)  .1686(5)  .078(14)  Uani  ?  ?  1.00000  ?  ?
  C052  .7506(8)  .2041(7)  .1435(6)  .11(2)  Uani  ?  ?  1.00000  ?  ?
  N061  .6652(8)  .0232(6)  .0334(6)  .15(2)  Uani  ?  ?  1.00000  ?  ?
  C061  .6174(7)  .0703(6)  .0468(4)  .072(14)  Uani  ?  ?  1.00000  ?  ?
  C062  .5589(6)  .1273(5)  .0653(3)  .045(10)  Uani  ?  ?  1.00000  ?  ?
  N071  .2132(6)  .3926(5)  .1482(4)  .092(15)  Uani  ?  ?  1.00000  ?  ?
  C071  .2504(6)  .3908(5)  .1711(4)  .051(11)  Uani  ?  ?  1.00000  ?  ?
  C072  .2985(5)  .3902(4)  .2000(3)  .041(9)  Uani  ?  ?  1.00000  ?  ?
  N081  .1380(11)  .0521(9)  .0741(7)  .195(8)  Uiso  ?  ?  1.00000  ?  ?
  C081  .1960(11)  .0551(9)  .0716(7)  .143(7)  Uiso  ?  ?  1.00000  ?  ?
  C082  .2569(10)  .0689(8)  .0691(6)  .123(6)  Uiso  ?  ?  1.00000  ?  ?
  N091  .8441(8)  .1408(8)  .0285(6)  .158(6)  Uiso  ?  ?  1.00000  ?  ?
  C091  .8223(8)  .1199(9)  .0038(6)  .145(7)  Uiso  ?  ?  1.00000  ?  ?
  C092  .7811(13)  .0987(12)  -.0242(9)  .226(12)  Uiso  ?  ?  1.00000  ?  ?
  N0101  .1817(11)  .3552(10)  .5060(7)  .233(10)  Uiso  ?  ?  1.00000  ?  ?
  C0101  .1267(12)  .3727(15)  .5449(8)  .283(16)  Uiso  ?  ?  1.00000  ?  ?
  C0102  .0428(14)  .3984(14)  .5846(9)  .248(14)  Uiso  ?  ?  1.00000  ?  ?
  N0111  .1085(12)  .4646(10)  .4474(9)  .266(8)  Uiso  ?  ?  1.00000  ?  ?
  C0111  .1376(10)  .4968(10)  .4249(11)  .266(8)  Uiso  ?  ?  1.00000  ?  ?
  C0112  .1669(13)  .5272(12)  .4024(11)  .266(8)  Uiso  ?  ?  1.00000  ?  ?
  N0121  .1891(11)  -.2168(9)  .2039(7)  .218(6)  Uiso  ?  ?  1.00000  ?  ?
  C0121  .1736(13)  -.1846(11)  .1819(9)  .218(6)  Uiso  ?  ?  1.00000  ?  ?
  C0122  .1479(14)  -.1359(11)  .1472(9)  .218(6)  Uiso  ?  ?  1.00000  ?  ?
  O01  .6080(4)  .0491(3)  .3688(2)  .047(7)  Uani  ?  ?  1.00000  ?  ?
  O02  .4119(3)  .4521(3)  .1307(2)  .035(6)  Uani  ?  ?  1.00000  ?  ?
  O03  .1154(6)  .4361(5)  -.0587(4)  .109(14)  Uani  ?  ?  1.00000  ?  ?
  O04  .8012(8)  .5148(5)  .0960(6)  .21(2)  Uani  ?  ?  1.00000  ?  ?
  O0s  -.1443(11)  .4202(9)  .4549(7)  .258(9)  Uiso  ?  ?  1.00000  ?  ?
  S0s  -.1879(5)  .4447(5)  .4224(4)  .322(18)  Uani  ?  ?  1.00000  ?  ?
  C01s  -.2367(15)  .5334(13)  .4408(10)  .226(12)  Uiso  ?  ?  1.00000  ?  ?
  C02s  -.2768(15)  .4422(14)  .4435(11)  .267(15)  Uiso  ?  ?  1.00000  ?  ?
  H113  .55883  .29351  .29132  .02600  Uiso  ?  ?  1.00000  ?  ?
  H1142a  .63668  .40551  .28589  .13000  Uiso  ?  ?  1.00000  ?  ?
  H1142b  .57692  .40870  .33100  .13000  Uiso  ?  ?  1.00000  ?  ?
  H1142c  .58457  .37667  .28093  .13000  Uiso  ?  ?  1.00000  ?  ?
  H1143a  .73400  .30684  .25212  .12600  Uiso  ?  ?  1.00000  ?  ?
  H1143b  .68035  .27977  .24723  .12600  Uiso  ?  ?  1.00000  ?  ?
  H1143c  .73864  .24417  .27365  .12600  Uiso  ?  ?  1.00000  ?  ?
  H1144a  .72589  .35591  .33010  .09900  Uiso  ?  ?  1.00000  ?  ?
  H1144b  .73111  .29593  .35637  .09900  Uiso  ?  ?  1.00000  ?  ?
  H1144c  .66771  .35962  .37648  .09900  Uiso  ?  ?  1.00000  ?  ?
  H115  .66034  .26177  .39981  .02400  Uiso  ?  ?  1.00000  ?  ?
  H11a  .64312  .19008  .45913  .02700  Uiso  ?  ?  1.00000  ?  ?
  H11b  .58970  .16110  .45842  .02700  Uiso  ?  ?  1.00000  ?  ?
  H123  .54242  -.00273  .26622  .02600  Uiso  ?  ?  1.00000  ?  ?
  H1242a  .73513  -.03576  .20156  .06200  Uiso  ?  ?  1.00000  ?  ?
  H1242b  .67949  -.04248  .24530  .06200  Uiso  ?  ?  1.00000  ?  ?
  H1242c  .70742  .00862  .24933  .06200  Uiso  ?  ?  1.00000  ?  ?
  H1243a  .65426  -.02114  .14515  .05300  Uiso  ?  ?  1.00000  ?  ?
  H1243b  .57727  .02942  .16030  .05300  Uiso  ?  ?  1.00000  ?  ?
  H1243c  .59973  -.02990  .18860  .05300  Uiso  ?  ?  1.00000  ?  ?
  H1244a  .70211  .05577  .15178  .06800  Uiso  ?  ?  1.00000  ?  ?
  H1244b  .67797  .09940  .19957  .06800  Uiso  ?  ?  1.00000  ?  ?
  H1244c  .62705  .10964  .16636  .06800  Uiso  ?  ?  1.00000  ?  ?
  H125  .57808  .15381  .25036  .02100  Uiso  ?  ?  1.00000  ?  ?
  H12a  .47161  .25560  .29213  .02100  Uiso  ?  ?  1.00000  ?  ?
  H12b  .43077  .24973  .34404  .02100  Uiso  ?  ?  1.00000  ?  ?
  H131  .32191  .17148  .37524  .02800  Uiso  ?  ?  1.00000  ?  ?
  H133  .22583  .07612  .25351  .03100  Uiso  ?  ?  1.00000  ?  ?
  H1342a  .27971  -.09431  .21180  .10000  Uiso  ?  ?  1.00000  ?  ?
  H1342b  .22840  -.03173  .24327  .10000  Uiso  ?  ?  1.00000  ?  ?
  H1342c  .28151  -.08449  .26555  .10000  Uiso  ?  ?  1.00000  ?  ?
  H1343a  .32495  -.03189  .14537  .08800  Uiso  ?  ?  1.00000  ?  ?
  H1343b  .35514  .01362  .15973  .08800  Uiso  ?  ?  1.00000  ?  ?
  H1343c  .27475  .03109  .17669  .08800  Uiso  ?  ?  1.00000  ?  ?
  H1344a  .41005  -.12189  .18126  .07600  Uiso  ?  ?  1.00000  ?  ?
  H1344b  .41493  -.11358  .23445  .07600  Uiso  ?  ?  1.00000  ?  ?
  H1344c  .44178  -.07692  .19423  .07600  Uiso  ?  ?  1.00000  ?  ?
  H135  .41883  -.03489  .27362  .03400  Uiso  ?  ?  1.00000  ?  ?
  H13a  .40863  .05367  .37539  .02500  Uiso  ?  ?  1.00000  ?  ?
  H13b  .45630  -.00615  .33969  .02500  Uiso  ?  ?  1.00000  ?  ?
  H143  -.04441  .14311  .39592  .04100  Uiso  ?  ?  1.00000  ?  ?
  H1442a  -.11470  .26995  .28209  .15400  Uiso  ?  ?  1.00000  ?  ?
  H1442b  -.03936  .26557  .27774  .15400  Uiso  ?  ?  1.00000  ?  ?
  H1442c  -.09520  .28666  .32785  .15400  Uiso  ?  ?  1.00000  ?  ?
  H1443a  -.14640  .19098  .31292  .14500  Uiso  ?  ?  1.00000  ?  ?
  H1443b  -.13391  .19683  .36412  .14500  Uiso  ?  ?  1.00000  ?  ?
  H1443c  -.09530  .13295  .33223  .14500  Uiso  ?  ?  1.00000  ?  ?
  H1444a  -.05954  .16781  .23951  .15100  Uiso  ?  ?  1.00000  ?  ?
  H1444b  -.00583  .11245  .25943  .15100  Uiso  ?  ?  1.00000  ?  ?
  H1444c  .01361  .16664  .23854  .15100  Uiso  ?  ?  1.00000  ?  ?
  H145  .07097  .19953  .28482  .03500  Uiso  ?  ?  1.00000  ?  ?
  H14a  .18348  .19198  .28801  .03300  Uiso  ?  ?  1.00000  ?  ?
  H14b  .19220  .20021  .34005  .03300  Uiso  ?  ?  1.00000  ?  ?
  H153  -.07978  .28814  .59156  .04800  Uiso  ?  ?  1.00000  ?  ?
  H1542a  -.25282  .36503  .56276  .07200  Uiso  ?  ?  .50000  ?  ?
  H1542b  -.18398  .35235  .52252  .07200  Uiso  ?  ?  .50000  ?  ?
  H1542c  -.18574  .36031  .57730  .07200  Uiso  ?  ?  .50000  ?  ?
  H1543a  -.26423  .27468  .53270  .07000  Uiso  ?  ?  .50000  ?  ?
  H1543b  -.20716  .20701  .53047  .07000  Uiso  ?  ?  .50000  ?  ?
  H1543c  -.19477  .25121  .49128  .07000  Uiso  ?  ?  .50000  ?  ?
  H1544a  -.25664  .27838  .62078  .06500  Uiso  ?  ?  .50000  ?  ?
  H1544b  -.18905  .27683  .63263  .06500  Uiso  ?  ?  .50000  ?  ?
  H1544c  -.19004  .21563  .61290  .06500  Uiso  ?  ?  .50000  ?  ?
  H1542'a  -.25805  .34601  .59877  .15600  Uiso  ?  ?  .50000  ?  ?
  H1542'b  -.19130  .35825  .57708  .15600  Uiso  ?  ?  .50000  ?  ?
  H1542'c  -.19327  .31698  .62046  .15600  Uiso  ?  ?  .50000  ?  ?
  H1543'a  -.26046  .31571  .52623  .13300  Uiso  ?  ?  .50000  ?  ?
  H1543'b  -.20273  .25441  .49606  .13300  Uiso  ?  ?  .50000  ?  ?
  H1543'c  -.18993  .31530  .49510  .13300  Uiso  ?  ?  .50000  ?  ?
  H1544'a  -.25791  .24584  .59748  .16200  Uiso  ?  ?  .50000  ?  ?
  H1544'b  -.19156  .22140  .61770  .16200  Uiso  ?  ?  .50000  ?  ?
  H1544'c  -.19059  .18863  .57000  .16200  Uiso  ?  ?  .50000  ?  ?
  H155  -.09182  .17299  .49166  .05600  Uiso  ?  ?  1.00000  ?  ?
  H15a  .08499  .07415  .45848  .03900  Uiso  ?  ?  1.00000  ?  ?
  H15b  .01024  .08232  .45649  .03900  Uiso  ?  ?  1.00000  ?  ?
  H163  .22326  .09124  .67775  .02900  Uiso  ?  ?  1.00000  ?  ?
  H1642a  .09819  .04435  .76107  .06400  Uiso  ?  ?  1.00000  ?  ?
  H1642b  .16735  .03559  .72258  .06400  Uiso  ?  ?  1.00000  ?  ?
  H1642c  .10292  .03771  .70562  .06400  Uiso  ?  ?  1.00000  ?  ?
  H1643a  -.00827  .14315  .77462  .05800  Uiso  ?  ?  1.00000  ?  ?
  H1643b  -.00792  .13987  .71978  .05800  Uiso  ?  ?  1.00000  ?  ?
  H1643c  -.00995  .19966  .74459  .05800  Uiso  ?  ?  1.00000  ?  ?
  H1644a  .09578  .14428  .79934  .06200  Uiso  ?  ?  1.00000  ?  ?
  H1644b  .09571  .19902  .76754  .06200  Uiso  ?  ?  1.00000  ?  ?
  H1644c  .16369  .13757  .76033  .06200  Uiso  ?  ?  1.00000  ?  ?
  H165  .02929  .20166  .66282  .03700  Uiso  ?  ?  1.00000  ?  ?
  H16a  .02700  .28073  .60105  .03900  Uiso  ?  ?  1.00000  ?  ?
  H16b  .08667  .26085  .55284  .03900  Uiso  ?  ?  1.00000  ?  ?
  H171  .29398  .18133  .52719  .03200  Uiso  ?  ?  1.00000  ?  ?
  H173  .37574  .28054  .65654  .03100  Uiso  ?  ?  1.00000  ?  ?
  H1742a  .32656  .26381  .79032  .14700  Uiso  ?  ?  1.00000  ?  ?
  H1742b  .27275  .26268  .76262  .14700  Uiso  ?  ?  1.00000  ?  ?
  H1742c  .31916  .29902  .74363  .14700  Uiso  ?  ?  1.00000  ?  ?
  H1743a  .45224  .20684  .75438  .14500  Uiso  ?  ?  1.00000  ?  ?
  H1743b  .44281  .24459  .70906  .14500  Uiso  ?  ?  1.00000  ?  ?
  H1743c  .48188  .17189  .70221  .14500  Uiso  ?  ?  1.00000  ?  ?
  H1744a  .38053  .14779  .78547  .13400  Uiso  ?  ?  1.00000  ?  ?
  H1744b  .40393  .10730  .73613  .13400  Uiso  ?  ?  1.00000  ?  ?
  H1744c  .32451  .14762  .75956  .13400  Uiso  ?  ?  1.00000  ?  ?
  H175  .33940  .12361  .67897  .02500  Uiso  ?  ?  1.00000  ?  ?
  H17a  .31910  .10112  .56215  .02900  Uiso  ?  ?  1.00000  ?  ?
  H17b  .32470  .07045  .61090  .02900  Uiso  ?  ?  1.00000  ?  ?
  H183  .60803  .29235  .49855  .02800  Uiso  ?  ?  1.00000  ?  ?
  H1842a  .58538  .39997  .61493  .11200  Uiso  ?  ?  1.00000  ?  ?
  H1842b  .61113  .33159  .59246  .11200  Uiso  ?  ?  1.00000  ?  ?
  H1842c  .53865  .36312  .63050  .11200  Uiso  ?  ?  1.00000  ?  ?
  H1843a  .59709  .43988  .53093  .12300  Uiso  ?  ?  1.00000  ?  ?
  H1843b  .56260  .42278  .49417  .12300  Uiso  ?  ?  1.00000  ?  ?
  H1843c  .62642  .37110  .50827  .12300  Uiso  ?  ?  1.00000  ?  ?
  H1844a  .48567  .48748  .59314  .09200  Uiso  ?  ?  1.00000  ?  ?
  H1844b  .44075  .44982  .61200  .09200  Uiso  ?  ?  1.00000  ?  ?
  H1844c  .44426  .47339  .56021  .09200  Uiso  ?  ?  1.00000  ?  ?
  H185  .41072  .38231  .58593  .03100  Uiso  ?  ?  1.00000  ?  ?
  H18a  .32531  .34269  .58928  .02800  Uiso  ?  ?  1.00000  ?  ?
  H18b  .33525  .30226  .54274  .02800  Uiso  ?  ?  1.00000  ?  ?
  H213  .97159  .28287  .17562  .03400  Uiso  ?  ?  1.00000  ?  ?
  H2142a  1.15906  .19022  .15669  .11400  Uiso  ?  ?  1.00000  ?  ?
  H2142b  1.12475  .18729  .11484  .11400  Uiso  ?  ?  1.00000  ?  ?
  H2142c  1.07925  .20515  .16860  .11400  Uiso  ?  ?  1.00000  ?  ?
  H2143a  1.13051  .30003  .19795  .11700  Uiso  ?  ?  1.00000  ?  ?
  H2143b  1.05124  .31274  .21090  .11700  Uiso  ?  ?  1.00000  ?  ?
  H2143c  1.07651  .36066  .18342  .11700  Uiso  ?  ?  1.00000  ?  ?
  H2144a  1.20479  .26781  .11397  .08600  Uiso  ?  ?  1.00000  ?  ?
  H2144b  1.15581  .32725  .09469  .08600  Uiso  ?  ?  1.00000  ?  ?
  H2144c  1.17351  .26099  .07139  .08600  Uiso  ?  ?  1.00000  ?  ?
  H215  1.07104  .34727  .06115  .03400  Uiso  ?  ?  1.00000  ?  ?
  H21a  1.00362  .41318  .00772  .03600  Uiso  ?  ?  1.00000  ?  ?
  H21b  .92681  .42211  .01166  .03600  Uiso  ?  ?  1.00000  ?  ?
  H223  .61586  .52748  .21563  .02600  Uiso  ?  ?  1.00000  ?  ?
  H2242a  .72663  .51953  .33539  .07400  Uiso  ?  ?  1.00000  ?  ?
  H2242b  .77372  .45668  .30311  .07400  Uiso  ?  ?  1.00000  ?  ?
  H2242c  .69387  .47441  .32464  .07400  Uiso  ?  ?  1.00000  ?  ?
  H2243a  .63893  .60762  .30562  .06800  Uiso  ?  ?  1.00000  ?  ?
  H2243b  .60366  .56494  .29410  .06800  Uiso  ?  ?  1.00000  ?  ?
  H2243c  .62902  .60202  .25355  .06800  Uiso  ?  ?  1.00000  ?  ?
  H2244a  .76525  .57975  .26924  .07900  Uiso  ?  ?  1.00000  ?  ?
  H2244b  .75521  .57322  .21731  .07900  Uiso  ?  ?  1.00000  ?  ?
  H2244c  .81258  .51854  .23498  .07900  Uiso  ?  ?  1.00000  ?  ?
  H225  .81282  .41037  .22455  .03100  Uiso  ?  ?  1.00000  ?  ?
  H22a  .85409  .29713  .18516  .03100  Uiso  ?  ?  1.00000  ?  ?
  H22b  .83623  .29278  .13566  .03100  Uiso  ?  ?  1.00000  ?  ?
  H231  .66738  .33879  .10526  .02300  Uiso  ?  ?  1.00000  ?  ?
  H233  .45093  .34592  .24529  .02300  Uiso  ?  ?  1.00000  ?  ?
  H2342a  .29970  .53783  .29569  .05900  Uiso  ?  ?  1.00000  ?  ?
  H2342b  .32342  .49695  .24650  .05900  Uiso  ?  ?  1.00000  ?  ?
  H2342c  .35593  .54417  .25221  .05900  Uiso  ?  ?  1.00000  ?  ?
  H2343a  .33056  .44388  .34273  .05200  Uiso  ?  ?  1.00000  ?  ?
  H2343b  .40494  .38905  .32766  .05200  Uiso  ?  ?  1.00000  ?  ?
  H2343c  .35299  .40037  .29513  .05200  Uiso  ?  ?  1.00000  ?  ?
  H2344a  .38074  .51832  .34992  .06000  Uiso  ?  ?  1.00000  ?  ?
  H2344b  .43600  .52608  .30652  .06000  Uiso  ?  ?  1.00000  ?  ?
  H2344c  .45689  .46635  .33449  .06000  Uiso  ?  ?  1.00000  ?  ?
  H235  .48858  .50159  .22641  .02500  Uiso  ?  ?  1.00000  ?  ?
  H23a  .61433  .44875  .11361  .02200  Uiso  ?  ?  1.00000  ?  ?
  H23b  .57081  .50658  .15193  .02200  Uiso  ?  ?  1.00000  ?  ?
  H243  .34723  .24535  .11149  .02500  Uiso  ?  ?  1.00000  ?  ?
  H2442a  .38994  .09463  .21501  .05100  Uiso  ?  ?  1.00000  ?  ?
  H2442b  .44890  .11816  .21134  .05100  Uiso  ?  ?  1.00000  ?  ?
  H2442c  .43567  .09759  .16408  .05100  Uiso  ?  ?  1.00000  ?  ?
  H2443a  .27971  .16057  .19457  .05000  Uiso  ?  ?  1.00000  ?  ?
  H2443b  .32097  .16428  .14216  .05000  Uiso  ?  ?  1.00000  ?  ?
  H2443c  .26861  .22549  .17502  .05000  Uiso  ?  ?  1.00000  ?  ?
  H2444a  .30508  .19659  .26845  .05100  Uiso  ?  ?  1.00000  ?  ?
  H2444b  .29838  .26031  .24811  .05100  Uiso  ?  ?  1.00000  ?  ?
  H2444c  .36703  .21686  .26177  .05100  Uiso  ?  ?  1.00000  ?  ?
  H245  .46924  .20605  .20696  .02200  Uiso  ?  ?  1.00000  ?  ?
  H24a  .55800  .24293  .19887  .02500  Uiso  ?  ?  1.00000  ?  ?
  H24b  .59276  .25066  .14567  .02500  Uiso  ?  ?  1.00000  ?  ?
  H253  .56552  .12587  -.08296  .02900  Uiso  ?  ?  1.00000  ?  ?
  H2542a  .49184  .01770  -.06388  .09500  Uiso  ?  ?  1.00000  ?  ?
  H2542b  .52275  .04010  -.02732  .09500  Uiso  ?  ?  1.00000  ?  ?
  H2542c  .54399  .04869  -.08258  .09500  Uiso  ?  ?  1.00000  ?  ?
  H2543a  .40300  .09870  -.10359  .07900  Uiso  ?  ?  1.00000  ?  ?
  H2543b  .45644  .12847  -.12184  .07900  Uiso  ?  ?  1.00000  ?  ?
  H2543c  .38083  .16973  -.09078  .07900  Uiso  ?  ?  1.00000  ?  ?
  H2544a  .37017  .08071  -.01647  .10300  Uiso  ?  ?  1.00000  ?  ?
  H2544b  .34463  .15176  -.00164  .10300  Uiso  ?  ?  1.00000  ?  ?
  H2544c  .39879  .10229  .02210  .10300  Uiso  ?  ?  1.00000  ?  ?
  H255  .37871  .22082  .01489  .03000  Uiso  ?  ?  1.00000  ?  ?
  H25a  .41032  .34955  .04657  .02200  Uiso  ?  ?  1.00000  ?  ?
  H25b  .35177  .32490  .05349  .02200  Uiso  ?  ?  1.00000  ?  ?
  H263  .64381  .37706  -.18952  .03000  Uiso  ?  ?  1.00000  ?  ?
  H2642a  .53081  .36623  -.26517  .08300  Uiso  ?  ?  1.00000  ?  ?
  H2642b  .55603  .39827  -.23065  .08300  Uiso  ?  ?  1.00000  ?  ?
  H2642c  .50200  .37018  -.20886  .08300  Uiso  ?  ?  1.00000  ?  ?
  H2643a  .65590  .29841  -.30541  .12700  Uiso  ?  ?  1.00000  ?  ?
  H2643b  .70611  .25889  -.27447  .12700  Uiso  ?  ?  1.00000  ?  ?
  H2643c  .67865  .33158  -.26995  .12700  Uiso  ?  ?  1.00000  ?  ?
  H2644a  .56727  .25275  -.27281  .12000  Uiso  ?  ?  1.00000  ?  ?
  H2644b  .53728  .25491  -.21678  .12000  Uiso  ?  ?  1.00000  ?  ?
  H2644c  .61461  .20969  -.24156  .12000  Uiso  ?  ?  1.00000  ?  ?
  H265  .60268  .22362  -.16120  .02900  Uiso  ?  ?  1.00000  ?  ?
  H26a  .65644  .16088  -.09580  .02900  Uiso  ?  ?  1.00000  ?  ?
  H26b  .65628  .19831  -.05081  .02900  Uiso  ?  ?  1.00000  ?  ?
  H271  .74191  .28946  -.04498  .02700  Uiso  ?  ?  1.00000  ?  ?
  H273  .95933  .29735  -.18735  .02800  Uiso  ?  ?  1.00000  ?  ?
  H2742a  .87759  .45562  -.28450  .06200  Uiso  ?  ?  1.00000  ?  ?
  H2742b  .87580  .46382  -.22972  .06200  Uiso  ?  ?  1.00000  ?  ?
  H2742c  .81102  .46225  -.24404  .06200  Uiso  ?  ?  1.00000  ?  ?
  H2743a  .98755  .35847  -.29875  .05400  Uiso  ?  ?  1.00000  ?  ?
  H2743b  .99380  .30279  -.26679  .05400  Uiso  ?  ?  1.00000  ?  ?
  H2743c  .98874  .36532  -.24449  .05400  Uiso  ?  ?  1.00000  ?  ?
  H2744a  .88411  .35607  -.32054  .06100  Uiso  ?  ?  1.00000  ?  ?
  H2744b  .81726  .36245  -.28047  .06100  Uiso  ?  ?  1.00000  ?  ?
  H2744c  .88524  .30076  -.28911  .06100  Uiso  ?  ?  1.00000  ?  ?
  H275  .76049  .40754  -.19429  .03100  Uiso  ?  ?  1.00000  ?  ?
  H27a  .67308  .40017  -.07572  .02600  Uiso  ?  ?  1.00000  ?  ?
  H27b  .66336  .43006  -.12429  .02600  Uiso  ?  ?  1.00000  ?  ?
  H283  1.10296  .31843  -.03215  .03600  Uiso  ?  ?  1.00000  ?  ?
  H2842a  1.27019  .23543  -.11502  .12500  Uiso  ?  ?  1.00000  ?  ?
  H2842b  1.20763  .28905  -.07952  .12500  Uiso  ?  ?  1.00000  ?  ?
  H2842c  1.20749  .28117  -.13391  .12500  Uiso  ?  ?  1.00000  ?  ?
  H2843a  1.25161  .15451  -.05841  .12700  Uiso  ?  ?  1.00000  ?  ?
  H2843b  1.17836  .15206  -.04170  .12700  Uiso  ?  ?  1.00000  ?  ?
  H2843c  1.18962  .20826  -.02265  .12700  Uiso  ?  ?  1.00000  ?  ?
  H2844a  1.25460  .14434  -.14538  .10500  Uiso  ?  ?  1.00000  ?  ?
  H2844b  1.19343  .19080  -.16527  .10500  Uiso  ?  ?  1.00000  ?  ?
  H2844c  1.18193  .14041  -.13227  .10500  Uiso  ?  ?  1.00000  ?  ?
  H285  1.07387  .20267  -.12216  .03500  Uiso  ?  ?  1.00000  ?  ?
  H28a  .96232  .21455  -.12406  .03000  Uiso  ?  ?  1.00000  ?  ?
  H28b  .90619  .23975  -.07429  .03000  Uiso  ?  ?  1.00000  ?  ?
  H101  -.03820  .38579  .42172  .05700  Uiso  ?  ?  1.00000  ?  ?
  H1011b  .04216  .33666  .48502  .10100  Uiso  ?  ?  1.00000  ?  ?
  H1011c  -.03849  .37698  .50134  .10100  Uiso  ?  ?  1.00000  ?  ?
  H1012a  -.02037  .28233  .39922  .09100  Uiso  ?  ?  1.00000  ?  ?
  H1012b  -.05841  .29998  .45452  .09100  Uiso  ?  ?  1.00000  ?  ?
  H1012c  .02227  .25964  .43817  .09100  Uiso  ?  ?  1.00000  ?  ?
  H101a  .09649  .30521  .38349  .06000  Uiso  ?  ?  1.00000  ?  ?
  H101b  .07676  .37644  .39285  .06000  Uiso  ?  ?  1.00000  ?  ?
  H102a  .02263  .32642  .33167  .06100  Uiso  ?  ?  1.00000  ?  ?
  H102b  .07611  .35603  .31307  .06100  Uiso  ?  ?  1.00000  ?  ?
  H1021a  -.03164  .50961  .34474  .15200  Uiso  ?  ?  1.00000  ?  ?
  H1021b  .03836  .46333  .30975  .15200  Uiso  ?  ?  1.00000  ?  ?
  H1021c  .03000  .46659  .36585  .15200  Uiso  ?  ?  1.00000  ?  ?
  H1022a  -.09807  .46455  .31110  .09500  Uiso  ?  ?  1.00000  ?  ?
  H1022b  -.07847  .39292  .31106  .09500  Uiso  ?  ?  1.00000  ?  ?
  H1022c  -.02925  .41746  .27553  .09500  Uiso  ?  ?  1.00000  ?  ?
  H201  .47641  .37639  -.01933  .02500  Uiso  ?  ?  1.00000  ?  ?
  H1011a  .01184  .40692  .47518  .10100  Uiso  ?  ?  1.00000  ?  ?
  H2011a  .51749  .40955  -.09422  .03400  Uiso  ?  ?  1.00000  ?  ?
  H2011b  .47605  .47978  -.07426  .03400  Uiso  ?  ?  1.00000  ?  ?
  H2011c  .53680  .43623  -.05264  .03400  Uiso  ?  ?  1.00000  ?  ?
  H2012a  .38534  .45719  .04125  .03600  Uiso  ?  ?  1.00000  ?  ?
  H2012b  .45537  .46571  .03092  .03600  Uiso  ?  ?  1.00000  ?  ?
  H2012c  .39455  .50923  .00929  .03600  Uiso  ?  ?  1.00000  ?  ?
  H201a  .35515  .41386  -.02097  .03100  Uiso  ?  ?  1.00000  ?  ?
  H201b  .36399  .46246  -.05701  .03100  Uiso  ?  ?  1.00000  ?  ?
  H202a  .43699  .38435  -.11787  .04300  Uiso  ?  ?  1.00000  ?  ?
  H202b  .43999  .33308  -.08188  .04300  Uiso  ?  ?  1.00000  ?  ?
  H2021a  .31171  .34712  -.15121  .14100  Uiso  ?  ?  1.00000  ?  ?
  H2021b  .37092  .37005  -.17106  .14100  Uiso  ?  ?  1.00000  ?  ?
  H2021c  .38917  .30402  -.15211  .14100  Uiso  ?  ?  1.00000  ?  ?
  H2022a  .27096  .33964  -.06821  .12500  Uiso  ?  ?  1.00000  ?  ?
  H2022b  .34559  .29629  -.06326  .12500  Uiso  ?  ?  1.00000  ?  ?
  H2022c  .30147  .35837  -.02950  .12500  Uiso  ?  ?  1.00000  ?  ?
  H301  .13094  .05865  .52830  .06200  Uiso  ?  ?  1.00000  ?  ?
  H3011a  .22931  .03077  .55582  .10200  Uiso  ?  ?  1.00000  ?  ?
  H3011b  .23449  -.03733  .55920  .10200  Uiso  ?  ?  1.00000  ?  ?
  H3011c  .24814  -.01196  .50841  .10200  Uiso  ?  ?  1.00000  ?  ?
  H3012a  .07879  -.01173  .52252  .10100  Uiso  ?  ?  1.00000  ?  ?
  H3012b  .15394  -.03900  .48737  .10100  Uiso  ?  ?  1.00000  ?  ?
  H3012c  .14032  -.06436  .53816  .10100  Uiso  ?  ?  1.00000  ?  ?
  H301a  .11541  -.00093  .61273  .08300  Uiso  ?  ?  1.00000  ?  ?
  H301b  .11908  .06408  .61221  .08300  Uiso  ?  ?  1.00000  ?  ?
  H302a  .00306  .10036  .63175  .08200  Uiso  ?  ?  1.00000  ?  ?
  H302b  .01403  .09041  .57568  .08200  Uiso  ?  ?  1.00000  ?  ?
  H3021a  -.03463  -.02484  .66657  .13000  Uiso  ?  ?  1.00000  ?  ?
  H3021b  .03305  -.01602  .66744  .13000  Uiso  ?  ?  1.00000  ?  ?
  H3021c  -.04039  .03911  .68662  .13000  Uiso  ?  ?  1.00000  ?  ?
  H3022a  -.10344  .02849  .60574  .19800  Uiso  ?  ?  1.00000  ?  ?
  H3022b  -.10974  .09411  .62219  .19800  Uiso  ?  ?  1.00000  ?  ?
  H3022c  -.07557  .06699  .56786  .19800  Uiso  ?  ?  1.00000  ?  ?
  H401  .51735  .12137  .52109  .05800  Uiso  ?  ?  1.00000  ?  ?
  H4011a  .45762  .07200  .54982  .10600  Uiso  ?  ?  1.00000  ?  ?
  H4011b  .51700  .02218  .56936  .10600  Uiso  ?  ?  1.00000  ?  ?
  H4011c  .47777  .09017  .59474  .10600  Uiso  ?  ?  1.00000  ?  ?
  H4012a  .55227  .03830  .47180  .14600  Uiso  ?  ?  1.00000  ?  ?
  H4012b  .61938  .05024  .46778  .14600  Uiso  ?  ?  1.00000  ?  ?
  H4012c  .60773  -.00142  .49913  .14600  Uiso  ?  ?  1.00000  ?  ?
  H401a  .64295  .08126  .52361  .03800  Uiso  ?  ?  .50000  ?  ?
  H401b  .62600  .03424  .55812  .03800  Uiso  ?  ?  .50000  ?  ?
  H402a  .55627  .11300  .62059  .05300  Uiso  ?  ?  .50000  ?  ?
  H402b  .55406  .16508  .58547  .05300  Uiso  ?  ?  .50000  ?  ?
  H401'a  .62246  .12844  .53547  .05600  Uiso  ?  ?  .50000  ?  ?
  H401'b  .55719  .15310  .58024  .06600  Uiso  ?  ?  .50000  ?  ?
  H402'a  .60394  .07155  .62212  .06500  Uiso  ?  ?  .50000  ?  ?
  H402'b  .65128  .02455  .58061  .06500  Uiso  ?  ?  .50000  ?  ?
  H4021a  .60243  .19027  .65508  .09300  Uiso  ?  ?  .50000  ?  ?
  H4021b  .67695  .14328  .65770  .09300  Uiso  ?  ?  .50000  ?  ?
  H4021c  .61379  .12440  .67268  .09300  Uiso  ?  ?  .50000  ?  ?
  H4022a  .64284  .20009  .57327  .14300  Uiso  ?  ?  .50000  ?  ?
  H4022b  .71906  .15625  .57686  .14300  Uiso  ?  ?  .50000  ?  ?
  H4022c  .68785  .14084  .53650  .14300  Uiso  ?  ?  .50000  ?  ?
  H4021'a  .71004  .15251  .62158  .06500  Uiso  ?  ?  .50000  ?  ?
  H4021'b  .64206  .17642  .60207  .06500  Uiso  ?  ?  .50000  ?  ?
  H4021'c  .64216  .14699  .65168  .06500  Uiso  ?  ?  .50000  ?  ?
  H4022'a  .78907  .00358  .62055  .06200  Uiso  ?  ?  .50000  ?  ?
  H4022'b  .78573  -.01338  .56614  .06200  Uiso  ?  ?  .50000  ?  ?
  H4022'c  .81371  .03440  .57945  .06200  Uiso  ?  ?  .50000  ?  ?
  H501  .87789  .44259  -.04797  .05300  Uiso  ?  ?  1.00000  ?  ?
  H5011a  .74920  .49871  -.03873  .04700  Uiso  ?  ?  .50000  ?  ?
  H5011b  .76303  .53164  -.08575  .04700  Uiso  ?  ?  .50000  ?  ?
  H5011c  .77672  .46118  -.08979  .04700  Uiso  ?  ?  .50000  ?  ?
  H5012a  .84053  .52403  -.00797  .06100  Uiso  ?  ?  .50000  ?  ?
  H5012b  .90899  .51521  -.04731  .06100  Uiso  ?  ?  .50000  ?  ?
  H5012c  .83643  .56282  -.05305  .06100  Uiso  ?  ?  .50000  ?  ?
  H5011'a  .77877  .45685  -.08094  .04700  Uiso  ?  ?  .50000  ?  ?
  H5011'b  .78677  .51344  -.10691  .04700  Uiso  ?  ?  .50000  ?  ?
  H5011'c  .84031  .44543  -.12708  .06000  Uiso  ?  ?  .50000  ?  ?
  H5012'a  .78753  .56981  -.03460  .07200  Uiso  ?  ?  .50000  ?  ?
  H5012'b  .76423  .52125  -.00640  .07200  Uiso  ?  ?  .50000  ?  ?
  H5012'c  .82987  .52954  .00042  .06100  Uiso  ?  ?  .50000  ?  ?
  H501a  .89209  .43350  -.14027  .04000  Uiso  ?  ?  .50000  ?  ?
  H501b  .88686  .50166  -.13778  .04000  Uiso  ?  ?  .50000  ?  ?
  H501'a  .89936  .53073  -.10051  .05600  Uiso  ?  ?  .50000  ?  ?
  H501'b  .93396  .49489  -.06050  .05600  Uiso  ?  ?  .50000  ?  ?
  H502a  .98111  .47026  -.11042  .05600  Uiso  ?  ?  .50000  ?  ?
  H502b  .98589  .40217  -.11127  .05900  Uiso  ?  ?  .50000  ?  ?
  H502'a  .95805  .44529  -.15654  .05600  Uiso  ?  ?  .50000  ?  ?
  H502'b  .97859  .39961  -.11696  .05600  Uiso  ?  ?  .50000  ?  ?
  H5021a  1.10304  .40154  -.15102  .09800  Uiso  ?  ?  .50000  ?  ?
  H5021b  1.09227  .34409  -.16803  .09800  Uiso  ?  ?  .50000  ?  ?
  H5021c  1.11985  .38219  -.20649  .09800  Uiso  ?  ?  .50000  ?  ?
  H5022a  1.03014  .50811  -.17732  .09600  Uiso  ?  ?  .50000  ?  ?
  H5022b  1.04944  .47475  -.22918  .09600  Uiso  ?  ?  .50000  ?  ?
  H5022c  .97100  .51283  -.20176  .09600  Uiso  ?  ?  .50000  ?  ?
  H5021'a  1.07251  .38937  -.20424  .09800  Uiso  ?  ?  .50000  ?  ?
  H5021'b  1.09088  .34742  -.16221  .09800  Uiso  ?  ?  .50000  ?  ?
  H5021'c  1.13487  .38510  -.18359  .09800  Uiso  ?  ?  .50000  ?  ?
  H5022'a  1.00450  .53919  -.12952  .09500  Uiso  ?  ?  .50000  ?  ?
  H5022'b  1.02408  .51020  -.18324  .09500  Uiso  ?  ?  .50000  ?  ?
  H5022'c  1.08306  .50255  -.15772  .09500  Uiso  ?  ?  .50000  ?  ?
  H601  .93431  .17908  .03570  .08000  Uiso  ?  ?  1.00000  ?  ?
  H6011a  1.03385  .19827  -.00415  .07000  Uiso  ?  ?  1.00000  ?  ?
  H6011b  1.06555  .17127  .03933  .07000  Uiso  ?  ?  1.00000  ?  ?
  H6011c  .99748  .23287  .04802  .07000  Uiso  ?  ?  1.00000  ?  ?
  H6012a  .93236  .12141  .09995  .10700  Uiso  ?  ?  1.00000  ?  ?
  H6012b  .93424  .18498  .11268  .10700  Uiso  ?  ?  1.00000  ?  ?
  H6012c  1.00231  .12338  .10402  .10700  Uiso  ?  ?  1.00000  ?  ?
  H601a  .98271  .06854  .01816  .14000  Uiso  ?  ?  1.00000  ?  ?
  H601b  1.05699  .06696  .01336  .14000  Uiso  ?  ?  1.00000  ?  ?
  H602a  1.02675  .12869  -.05613  .06200  Uiso  ?  ?  1.00000  ?  ?
  H602b  .96194  .11211  -.04733  .06200  Uiso  ?  ?  1.00000  ?  ?
  H6021a  1.15219  .05038  -.09490  .35000  Uiso  ?  ?  1.00000  ?  ?
  H6021b  1.17064  -.02094  -.09354  .35000  Uiso  ?  ?  1.00000  ?  ?
  H6021c  1.14756  .02128  -.04514  .35000  Uiso  ?  ?  1.00000  ?  ?
  H6022a  1.06431  .00521  -.15075  .32100  Uiso  ?  ?  1.00000  ?  ?
  H6022b  1.01010  .07433  -.13580  .32100  Uiso  ?  ?  1.00000  ?  ?
  H6022c  .98919  .01972  -.11826  .32100  Uiso  ?  ?  1.00000  ?  ?
  H012a  .29940  .31316  .37780  .08500  Uiso  ?  ?  1.00000  ?  ?
  H012b  .23009  .30476  .39895  .08500  Uiso  ?  ?  1.00000  ?  ?
  H012c  .28160  .26675  .35076  .08500  Uiso  ?  ?  1.00000  ?  ?
  H022a  .43568  .33964  .43471  .06300  Uiso  ?  ?  1.00000  ?  ?
  H022b  .46875  .37494  .45960  .06300  Uiso  ?  ?  1.00000  ?  ?
  H022c  .47635  .37496  .40333  .06300  Uiso  ?  ?  1.00000  ?  ?
  H032a  .12359  .28279  .68665  .09300  Uiso  ?  ?  1.00000  ?  ?
  H032b  .20473  .24871  .66623  .09300  Uiso  ?  ?  1.00000  ?  ?
  H032c  .17074  .27953  .71940  .09300  Uiso  ?  ?  1.00000  ?  ?
  H042a  .67867  .15359  .31200  .09400  Uiso  ?  ?  1.00000  ?  ?
  H042b  .75173  .11299  .27720  .09400  Uiso  ?  ?  1.00000  ?  ?
  H042c  .70644  .08150  .30834  .09400  Uiso  ?  ?  1.00000  ?  ?
  H052a  .76991  .22760  .12287  .14300  Uiso  ?  ?  1.00000  ?  ?
  H052b  .70590  .23390  .16564  .14300  Uiso  ?  ?  1.00000  ?  ?
  H052c  .73244  .18303  .12473  .14300  Uiso  ?  ?  1.00000  ?  ?
  H062a  .51869  .13094  .05400  .06700  Uiso  ?  ?  1.00000  ?  ?
  H062b  .54477  .13359  .10024  .06700  Uiso  ?  ?  1.00000  ?  ?
  H062c  .56983  .16236  .05448  .06700  Uiso  ?  ?  1.00000  ?  ?
  H072a  .27443  .39921  .23407  .06000  Uiso  ?  ?  1.00000  ?  ?
  H072b  .33593  .34813  .19594  .06000  Uiso  ?  ?  1.00000  ?  ?
  H072c  .32051  .41850  .18958  .06000  Uiso  ?  ?  1.00000  ?  ?
  H01a  .57020  .08640  .38336  .07000  Uiso  ?  ?  1.00000  ?  ?
  H01b  .59368  .03034  .33486  .07000  Uiso  ?  ?  1.00000  ?  ?
  H02a  .44251  .41040  .12441  .05300  Uiso  ?  ?  1.00000  ?  ?
  H02b  .43293  .45879  .15544  .05300  Uiso  ?  ?  1.00000  ?  ?
  H01sa  -.19430  .54767  .43639  .25800  Uiso  ?  ?  1.00000  ?  ?
  H01sb  -.25406  .53985  .47579  .25800  Uiso  ?  ?  1.00000  ?  ?
  H01sc  -.26379  .55584  .42385  .25800  Uiso  ?  ?  1.00000  ?  ?
  H02sa  -.27273  .40182  .44896  .31800  Uiso  ?  ?  1.00000  ?  ?
  H02sb  -.30286  .47020  .47266  .31800  Uiso  ?  ?  1.00000  ?  ?
  H02sc  -.30277  .45790  .41883  .31800  Uiso  ?  ?  1.00000  ?  ?
 
loop_
_atom_site_aniso_label
_atom_site_aniso_U_11
_atom_site_aniso_U_22
_atom_site_aniso_U_33
_atom_site_aniso_U_12
_atom_site_aniso_U_13
_atom_site_aniso_U_23
 Tc11  .01778(15)  .02330(17)  .01772(14)  -.01069(13)  -.00418(12)  .00417(12)
 Tc12  .01567(15)  .02685(18)  .01951(15)  -.00919(13)  -.00253(12)  .00129(13)
 Tc21  .01309(14)  .02378(17)  .02342(15)  -.00894(13)  -.00444(12)  .00441(13)
 Tc22  .01491(14)  .02059(16)  .01841(14)  -.00946(12)  -.00527(11)  .00521(12)
  O10  .021(3)  .029(3)  .010(2)  -.009(3)  -.002(2)  -.002(2)
  O1101  .021(3)  .018(3)  .029(3)  -.003(2)  -.008(2)  -.005(2)
  O1102  .023(3)  .023(3)  .027(3)  -.008(3)  -.005(2)  .004(2)
  O1201  .020(3)  .033(4)  .034(3)  -.013(3)  -.004(3)  .001(3)
  O1202  .022(3)  .023(3)  .032(3)  -.006(3)  -.004(2)  .001(3)
  O20  .023(3)  .033(3)  .008(2)  -.017(3)  -.001(2)  -.001(2)
  O2101  .019(3)  .025(3)  .039(3)  -.005(3)  -.004(3)  .003(3)
  O2102  .013(3)  .035(4)  .027(3)  -.008(3)  -.004(2)  .002(3)
  O2201  .024(3)  .018(3)  .027(3)  -.007(2)  -.007(2)  .004(2)
  O2202  .022(3)  .018(3)  .027(3)  -.009(2)  -.004(2)  .004(2)
  O111  .020(3)  .026(3)  .019(3)  -.013(2)  -.004(2)  .005(2)
  C111  .020(4)  .023(4)  .015(4)  -.010(3)  -.002(3)  .003(3)
  C112  .019(4)  .010(4)  .019(4)  -.000(3)  -.003(3)  -.002(3)
  C113  .019(4)  .023(4)  .019(4)  -.008(3)  -.001(3)  .006(3)
  C114  .024(4)  .016(4)  .020(4)  -.009(3)  .002(3)  .000(3)
  C1141  .025(4)  .036(5)  .031(5)  -.021(4)  -.008(4)  .013(4)
  C1142  .062(8)  .075(9)  .151(13)  -.053(8)  -.063(9)  .079(9)
  C1143  .087(11)  .093(11)  .104(11)  -.066(9)  .053(9)  -.009(9)
  C1144  .110(11)  .125(12)  .075(8)  -.106(11)  -.056(8)  .066(8)
  C115  .014(4)  .022(4)  .025(4)  -.009(3)  -.005(3)  .001(3)
  C116  .010(3)  .020(4)  .006(3)  -.000(3)  .000(3)  .005(3)
  C11  .023(4)  .041(5)  .009(3)  -.020(4)  -.004(3)  -.001(3)
  O121  .016(3)  .027(3)  .014(3)  -.007(2)  -.000(2)  -.004(2)
  C121  .018(4)  .023(4)  .012(3)  -.006(3)  -.004(3)  -.000(3)
  C122  .017(4)  .016(4)  .014(4)  -.003(3)  -.005(3)  -.000(3)
  C123  .022(4)  .009(4)  .033(4)  -.002(3)  -.005(4)  -.000(3)
  C124  .017(4)  .029(5)  .018(4)  -.005(4)  -.002(3)  -.001(3)
  C1241  .022(4)  .018(4)  .026(4)  -.000(4)  .004(3)  -.003(4)
  C1242  .020(5)  .040(6)  .048(6)  .001(4)  -.002(4)  -.012(5)
  C1243  .033(5)  .036(6)  .028(5)  -.008(4)  .000(4)  -.001(4)
  C1244  .043(6)  .032(6)  .042(6)  -.013(5)  .022(5)  -.012(5)
  C125  .020(4)  .026(5)  .013(4)  -.014(4)  -.005(3)  .004(3)
  C126  .023(4)  .018(4)  .012(3)  -.007(3)  -.008(3)  .002(3)
  C12  .020(4)  .016(4)  .016(4)  -.008(3)  -.002(3)  -.001(3)
  O131  .018(3)  .023(3)  .023(3)  -.009(2)  -.002(2)  -.004(2)
  C131  .029(5)  .038(5)  .016(4)  -.025(4)  -.005(3)  .005(4)
  C132  .021(4)  .028(5)  .018(4)  -.013(4)  -.005(3)  .008(3)
  C133  .028(5)  .035(5)  .016(4)  -.020(4)  -.004(3)  .008(4)
  C134  .040(5)  .028(5)  .024(4)  -.023(4)  -.003(4)  .003(4)
  C1341  .068(8)  .036(6)  .029(5)  -.024(6)  -.012(5)  -.002(4)
  C1342  .092(10)  .082(10)  .066(8)  -.062(9)  -.013(7)  -.016(7)
  C1343  .112(11)  .043(7)  .031(6)  -.017(7)  -.028(6)  -.007(5)
  C1344  .070(8)  .042(7)  .048(6)  -.026(6)  .002(6)  -.026(5)
  C135  .035(5)  .027(5)  .022(4)  -.018(4)  .004(4)  .001(4)
  C136  .025(4)  .032(5)  .016(4)  -.019(4)  -.001(3)  .001(3)
  C13  .024(4)  .015(4)  .022(4)  -.006(3)  -.007(3)  .001(3)
  O141  .025(3)  .042(4)  .019(3)  -.022(3)  -.004(2)  .003(3)
  C141  .018(4)  .034(5)  .026(4)  -.013(4)  -.004(3)  .001(4)
  C142  .030(5)  .046(6)  .031(5)  -.024(5)  -.000(4)  .004(4)
  C143  .024(5)  .043(6)  .036(5)  -.015(4)  -.003(4)  .010(4)
  C144  .026(5)  .051(6)  .036(5)  -.020(5)  -.008(4)  .008(5)
  C1441  .034(6)  .079(9)  .067(7)  -.026(6)  -.023(5)  .040(7)
  C1442  .117(14)  .106(13)  .22(2)  -.073(11)  -.141(14)  .098(13)
  C1443  .106(13)  .179(17)  .141(14)  -.106(13)  -.097(11)  .114(13)
  C1444  .110(14)  .20(2)  .139(14)  -.102(14)  -.098(12)  .086(14)
  C145  .022(4)  .033(5)  .025(4)  -.009(4)  -.002(4)  .004(4)
  C146  .020(4)  .032(5)  .022(4)  -.012(4)  .000(3)  -.004(4)
  C14  .024(4)  .034(5)  .020(4)  -.013(4)  -.005(3)  -.002(4)
  O151  .018(3)  .035(4)  .021(3)  -.010(3)  -.009(2)  .008(3)
  C151  .014(4)  .047(6)  .023(4)  -.010(4)  -.002(3)  .009(4)
  C152  .027(5)  .058(7)  .023(4)  -.016(5)  -.006(4)  .016(4)
  C153  .021(5)  .055(7)  .029(5)  -.005(5)  .003(4)  .002(5)
  C154  .017(5)  .077(8)  .033(5)  -.006(5)  .004(4)  .003(5)
  C1541  .021(5)  .109(11)  .041(6)  -.015(6)  .003(5)  .001(6)
  C155  .023(5)  .073(8)  .033(5)  -.023(5)  -.003(4)  .019(5)
  C156  .034(5)  .064(7)  .021(4)  -.020(5)  -.007(4)  .021(5)
  C15  .026(5)  .048(6)  .032(5)  -.025(4)  -.019(4)  .027(4)
  O161  .021(3)  .042(4)  .015(3)  -.013(3)  .001(2)  .001(3)
  C161  .030(5)  .028(5)  .014(4)  -.012(4)  -.002(3)  -.006(3)
  C162  .017(4)  .028(5)  .024(4)  -.007(4)  -.002(3)  -.002(4)
  C163  .023(4)  .027(5)  .014(4)  -.011(4)  -.000(3)  .005(3)
  C164  .023(4)  .040(6)  .022(4)  -.018(4)  .001(3)  .001(4)
  C1641  .030(5)  .034(5)  .023(4)  -.015(4)  -.001(4)  .007(4)
  C1642  .039(6)  .055(7)  .036(5)  -.024(5)  .007(4)  .006(5)
  C1643  .032(5)  .050(6)  .028(5)  -.019(5)  .002(4)  .004(4)
  C1644  .040(6)  .064(7)  .023(5)  -.024(5)  -.002(4)  .006(5)
  C165  .018(4)  .040(6)  .027(4)  -.008(4)  .006(4)  -.002(4)
  C166  .025(4)  .042(6)  .018(4)  -.014(4)  -.002(3)  .002(4)
  C16  .023(5)  .035(5)  .022(4)  .002(4)  .002(4)  .003(4)
  O171  .024(3)  .040(4)  .013(3)  -.016(3)  -.001(2)  -.002(2)
  C171  .011(4)  .029(5)  .024(4)  -.006(3)  -.003(3)  .002(4)
  C172  .015(4)  .026(5)  .018(4)  -.005(3)  .003(3)  .005(3)
  C173  .025(4)  .026(5)  .020(4)  -.013(4)  -.002(3)  -.004(4)
  C174  .029(5)  .024(5)  .018(4)  -.009(4)  -.003(3)  .002(3)
  C1741  .047(6)  .027(5)  .026(5)  -.017(4)  -.017(4)  .006(4)
  C1742  .175(18)  .059(10)  .052(8)  -.009(10)  -.041(10)  .003(7)
  C1743  .122(14)  .21(2)  .065(9)  -.122(14)  -.062(9)  .061(10)
  C1744  .193(18)  .087(11)  .056(8)  -.082(12)  -.080(10)  .041(7)
  C175  .022(4)  .020(4)  .016(4)  -.004(3)  -.001(3)  .002(3)
  C176  .012(4)  .019(4)  .017(4)  -.000(3)  .001(3)  .000(3)
  C17  .016(4)  .027(5)  .024(4)  -.005(3)  -.005(3)  .000(4)
  O181  .020(3)  .023(3)  .016(3)  -.009(2)  -.005(2)  .007(2)
  C181  .022(4)  .032(5)  .013(4)  -.013(4)  -.009(3)  .011(3)
  C182  .019(4)  .034(5)  .012(3)  -.012(4)  -.005(3)  .012(3)
  C183  .021(4)  .028(5)  .020(4)  -.011(4)  -.009(3)  .003(3)
  C184  .025(4)  .030(5)  .026(4)  -.014(4)  -.008(4)  .008(4)
  C1841  .034(5)  .026(5)  .054(6)  -.015(4)  -.010(5)  -.007(4)
  C1842  .077(10)  .073(9)  .087(9)  -.031(8)  -.053(8)  -.007(7)
  C1843  .093(10)  .101(11)  .074(8)  -.089(9)  .020(7)  -.018(7)
  C1844  .044(7)  .037(7)  .116(10)  -.018(6)  -.007(7)  -.028(7)
  C185  .028(5)  .029(5)  .022(4)  -.010(4)  -.006(4)  .009(4)
  C186  .022(4)  .033(5)  .015(4)  -.014(4)  -.003(3)  .007(3)
  C18  .025(4)  .025(5)  .020(4)  -.010(4)  -.005(3)  .005(4)
  O211  .018(3)  .031(3)  .023(3)  -.011(3)  -.008(2)  .011(2)
  C211  .020(4)  .019(4)  .021(4)  -.008(3)  -.006(3)  .001(3)
  C212  .017(4)  .030(5)  .021(4)  -.010(4)  -.008(3)  .004(4)
  C213  .022(4)  .026(5)  .025(4)  -.005(4)  -.003(3)  .001(4)
  C214  .022(4)  .047(6)  .026(4)  -.016(4)  -.007(4)  -.002(4)
  C2141  .018(4)  .049(6)  .043(5)  -.005(4)  -.014(4)  .013(5)
  C2142  .039(7)  .081(10)  .125(12)  -.017(7)  -.049(8)  .041(9)
  C2143  .037(7)  .153(14)  .049(7)  -.020(8)  -.024(6)  -.015(8)
  C2144  .021(5)  .117(11)  .047(6)  -.023(6)  -.011(5)  .019(7)
  C215  .014(4)  .039(5)  .023(4)  -.009(4)  -.003(3)  .003(4)
  C216  .016(4)  .017(4)  .022(4)  -.004(3)  -.006(3)  -.001(3)
  C21  .030(5)  .031(5)  .025(4)  -.023(4)  .005(4)  -.000(4)
  O221  .020(3)  .028(3)  .016(3)  -.014(2)  -.001(2)  -.000(2)
  C221  .026(4)  .031(5)  .014(4)  -.018(4)  -.001(3)  .002(3)
  C222  .022(4)  .020(4)  .020(4)  -.013(3)  -.006(3)  .010(3)
  C223  .027(4)  .019(4)  .018(4)  -.013(4)  -.002(3)  .001(3)
  C224  .028(5)  .045(6)  .020(4)  -.029(4)  -.006(3)  .006(4)
  C2241  .042(6)  .033(5)  .028(5)  -.025(5)  -.009(4)  -.004(4)
  C2242  .082(9)  .049(7)  .036(6)  -.029(7)  -.023(6)  -.004(5)
  C2243  .065(8)  .040(6)  .042(6)  -.026(6)  -.008(5)  -.013(5)
  C2244  .093(10)  .061(8)  .049(6)  -.062(8)  -.020(6)  .004(6)
  C225  .029(5)  .043(6)  .017(4)  -.027(4)  -.010(3)  .007(4)
  C226  .016(4)  .033(5)  .017(4)  -.015(4)  -.006(3)  .009(3)
  C22  .020(4)  .032(5)  .023(4)  -.012(4)  -.008(3)  .008(4)
  O231  .016(3)  .022(3)  .016(3)  -.009(2)  -.001(2)  .001(2)
  C231  .016(4)  .021(4)  .013(3)  -.008(3)  -.004(3)  -.000(3)
  C232  .025(4)  .021(4)  .008(3)  -.012(3)  -.008(3)  .006(3)
  C233  .016(4)  .026(5)  .016(4)  -.009(3)  -.006(3)  .004(3)
  C234  .020(4)  .018(4)  .015(4)  -.003(3)  -.005(3)  .001(3)
  C2341  .025(4)  .032(5)  .020(4)  -.012(4)  -.000(3)  .001(4)
  C2342  .030(5)  .031(5)  .037(5)  -.002(4)  .002(4)  .002(4)
  C2343  .036(5)  .040(6)  .024(4)  -.015(5)  .011(4)  .000(4)
  C2344  .046(6)  .045(6)  .024(5)  -.025(5)  -.001(4)  -.008(4)
  C235  .022(4)  .025(5)  .014(4)  -.011(4)  -.003(3)  .000(3)
  C236  .014(4)  .023(4)  .014(4)  -.006(3)  -.006(3)  .003(3)
  C23  .019(4)  .024(4)  .017(4)  -.011(3)  -.005(3)  .004(3)
  O241  .022(3)  .018(3)  .016(3)  -.013(2)  -.005(2)  .005(2)
  C241  .015(4)  .008(4)  .012(3)  -.002(3)  .001(3)  -.003(3)
  C242  .012(3)  .016(4)  .019(4)  -.003(3)  .001(3)  .004(3)
  C243  .013(4)  .025(5)  .025(4)  -.011(3)  -.006(3)  .004(3)
  C244  .020(4)  .026(5)  .023(4)  -.015(4)  -.002(3)  .001(3)
  C2441  .024(4)  .034(5)  .031(4)  -.017(4)  -.013(4)  .018(4)
  C2442  .039(6)  .035(6)  .047(6)  -.024(5)  -.018(5)  .027(5)
  C2443  .031(5)  .053(6)  .043(5)  -.033(5)  -.016(4)  .018(5)
  C2444  .030(5)  .048(6)  .024(4)  -.022(5)  -.003(4)  .013(4)
  C245  .023(4)  .017(4)  .018(4)  -.008(3)  -.010(3)  .008(3)
  C246  .020(4)  .022(4)  .017(4)  -.007(3)  -.001(3)  -.001(3)
  C24  .017(4)  .019(4)  .023(4)  -.006(3)  -.007(3)  .006(3)
  O251  .019(3)  .015(3)  .021(3)  -.006(2)  -.003(2)  .003(2)
  C251  .026(4)  .023(4)  .016(4)  -.014(4)  -.003(3)  .005(3)
  C252  .026(4)  .027(5)  .017(4)  -.012(4)  -.006(3)  .013(3)
  C253  .034(5)  .018(4)  .018(4)  -.011(4)  -.006(3)  .000(3)
  C254  .035(5)  .026(5)  .020(4)  -.020(4)  -.009(4)  .005(4)
  C2541  .041(6)  .037(6)  .040(5)  -.026(5)  -.007(4)  .000(4)
  C2542  .064(8)  .040(7)  .088(9)  -.031(6)  -.025(7)  .004(6)
  C2543  .058(7)  .055(7)  .073(8)  -.037(6)  -.034(6)  -.003(6)
  C2544  .077(9)  .076(9)  .068(8)  -.057(8)  .015(7)  -.022(7)
  C255  .026(4)  .027(5)  .024(4)  -.015(4)  -.008(3)  .011(4)
  C256  .028(4)  .017(4)  .009(3)  -.008(3)  -.011(3)  .005(3)
  C25  .023(4)  .026(5)  .013(4)  -.014(4)  -.004(3)  .005(3)
  O261  .020(3)  .032(3)  .014(3)  -.015(3)  -.008(2)  -.000(2)
  C261  .014(4)  .020(4)  .022(4)  -.005(3)  .000(3)  -.004(3)
  C262  .013(4)  .025(4)  .016(4)  -.007(3)  -.002(3)  .000(3)
  C263  .017(4)  .025(5)  .027(4)  -.007(4)  -.003(3)  .006(4)
  C264  .025(4)  .030(5)  .017(4)  -.007(4)  -.004(3)  .000(4)
  C2641  .053(6)  .034(5)  .026(4)  -.027(5)  -.018(4)  .011(4)
  C2642  .074(9)  .059(8)  .044(6)  -.023(7)  -.034(6)  .011(6)
  C2643  .066(9)  .158(14)  .013(5)  -.028(9)  -.003(5)  -.009(7)
  C2644  .190(17)  .071(9)  .075(9)  -.092(11)  -.099(10)  .042(7)
  C265  .022(4)  .021(4)  .028(4)  -.010(4)  -.005(3)  -.006(4)
  C266  .019(4)  .024(5)  .017(4)  -.007(3)  .003(3)  .004(3)
  C26  .028(5)  .024(5)  .017(4)  -.011(4)  .002(3)  .000(3)
  O271  .019(3)  .037(4)  .010(2)  -.013(3)  -.002(2)  .004(2)
  C271  .015(4)  .024(4)  .018(4)  -.006(3)  -.003(3)  -.002(3)
  C272  .018(4)  .025(5)  .018(4)  -.006(3)  -.005(3)  .001(3)
  C273  .018(4)  .035(5)  .017(4)  -.014(4)  .004(3)  -.001(4)
  C274  .022(4)  .018(4)  .015(4)  -.007(3)  .001(3)  -.002(3)
  C2741  .023(4)  .038(5)  .021(4)  -.010(4)  -.002(3)  .013(4)
  C2742  .042(6)  .051(7)  .034(5)  -.027(5)  -.003(4)  .016(5)
  C2743  .032(5)  .049(6)  .028(5)  -.021(5)  .003(4)  .009(4)
  C2744  .038(6)  .056(7)  .025(5)  -.018(5)  -.007(4)  .004(5)
  C275  .023(4)  .017(4)  .037(5)  -.008(4)  -.008(4)  .005(4)
  C276  .018(4)  .027(5)  .011(3)  -.011(3)  .001(3)  -.001(3)
  C27  .012(4)  .023(4)  .024(4)  -.003(3)  -.004(3)  .002(3)
  O281  .012(3)  .037(4)  .019(3)  -.010(3)  -.002(2)  .006(2)
  C281  .019(4)  .027(5)  .020(4)  -.011(4)  -.004(3)  .012(3)
  C282  .019(4)  .034(5)  .023(4)  -.015(4)  -.003(3)  .006(4)
  C283  .015(4)  .043(6)  .027(4)  -.011(4)  -.006(3)  .006(4)
  C284  .020(4)  .053(6)  .018(4)  -.012(4)  .000(3)  .009(4)
  C2841  .016(4)  .056(7)  .040(5)  -.008(4)  -.006(4)  -.002(5)
  C2842  .014(5)  .089(10)  .120(11)  -.021(6)  .017(6)  -.030(8)
  C2843  .027(6)  .111(12)  .073(9)  .010(7)  -.008(6)  .027(8)
  C2844  .019(5)  .075(9)  .086(9)  .003(5)  .002(6)  -.041(7)
  C285  .024(5)  .038(6)  .021(4)  -.008(4)  -.001(4)  .004(4)
  C286  .019(4)  .029(5)  .022(4)  -.008(4)  -.005(3)  .009(4)
  C28  .025(4)  .025(5)  .020(4)  -.008(4)  .002(3)  .002(4)
  N101  .041(5)  .039(5)  .042(5)  -.002(4)  -.008(4)  -.003(4)
  C1011  .070(9)  .099(11)  .040(6)  -.018(8)  -.016(6)  -.011(7)
  C1012  .056(8)  .052(8)  .056(7)  -.020(6)  -.010(6)  .002(6)
  C101  .034(6)  .046(7)  .059(7)  -.006(5)  -.009(5)  .002(5)
  C102  .044(6)  .042(7)  .047(6)  -.007(5)  -.012(5)  .003(5)
  N102  .046(6)  .038(5)  .077(7)  -.002(4)  -.026(5)  -.001(5)
  C1021  .106(13)  .027(7)  .23(2)  -.019(8)  -.097(14)  .024(9)
  C1022  .087(10)  .063(9)  .079(9)  -.031(8)  -.045(8)  .008(7)
  N201  .020(3)  .019(4)  .019(3)  -.008(3)  -.002(3)  .001(3)
  C2011  .017(4)  .035(5)  .022(4)  -.010(4)  -.004(3)  .006(4)
  C2012  .024(4)  .021(5)  .022(4)  -.007(4)  -.003(3)  -.002(3)
  C201  .020(4)  .027(5)  .027(4)  -.011(4)  -.009(3)  .004(4)
  C202  .057(7)  .032(5)  .028(5)  -.027(5)  -.015(4)  .002(4)
  N202  .121(10)  .109(9)  .034(5)  -.101(8)  -.004(5)  -.006(5)
  C2021  .25(2)  .30(3)  .108(13)  -.26(2)  -.075(15)  .039(15)
  C2022  .143(16)  .123(14)  .140(14)  -.103(13)  -.097(12)  .043(11)
  N301  .056(6)  .037(5)  .044(5)  -.010(4)  -.012(4)  .000(4)
  C3011  .041(7)  .098(11)  .133(12)  -.032(8)  -.032(8)  .077(10)
  C3012  .134(14)  .095(12)  .077(9)  -.077(11)  -.047(9)  .015(8)
  C301  .057(9)  .090(11)  .074(9)  -.017(8)  .006(7)  .002(8)
  C302  .068(9)  .092(11)  .067(8)  -.046(8)  -.011(7)  .023(7)
  N302  .077(9)  .096(9)  .109(9)  -.054(8)  -.021(7)  .020(7)
  C3021  .139(16)  .099(13)  .084(11)  -.059(12)  .003(10)  .032(9)
  C3022  .039(9)  .23(2)  .18(2)  -.045(13)  -.019(11)  -.039(17)
  N401  .024(4)  .065(6)  .046(5)  -.009(4)  -.011(4)  .035(4)
  C4011  .029(6)  .091(10)  .066(8)  -.008(6)  .001(5)  .046(7)
  C4012  .055(8)  .060(8)  .082(9)  .022(7)  .029(7)  .037(7)
  N501  .041(5)  .031(5)  .051(5)  -.015(4)  -.013(4)  .009(4)
  C5011  .021(9)  .027(10)  .049(11)  .005(8)  -.002(8)  .010(9)
  C5011'  .064(15)  .035(12)  .083(16)  -.034(12)  -.047(13)  .036(11)
  C5012  .071(15)  .020(10)  .024(9)  -.011(10)  -.004(9)  .002(8)
  C5012'  .033(12)  .044(14)  .080(16)  -.015(10)  .006(11)  -.014(12)
  C501  .024(9)  .037(11)  .040(10)  -.018(8)  -.007(8)  .008(9)
  C501'  .052(13)  .061(15)  .032(10)  -.035(12)  -.013(9)  -.001(10)
  C502  .057(7)  .052(7)  .033(5)  -.030(6)  -.006(5)  .011(5)
  N502  .066(15)  .101(18)  .087(15)  -.044(14)  -.021(12)  .072(14)
  N502'  .050(11)  .081(14)  .034(9)  -.044(11)  -.006(8)  .005(9)
  C5021  .051(8)  .097(11)  .102(11)  -.029(8)  -.008(8)  .033(9)
  C5022  .08(2)  .11(2)  .073(17)  -.053(19)  .014(15)  .045(16)
  C5022'  .13(3)  .066(17)  .069(16)  -.075(18)  .079(17)  -.047(13)
  N601  .058(7)  .055(6)  .059(6)  -.009(5)  -.004(5)  .016(5)
  C6011  .035(6)  .045(7)  .048(6)  -.005(5)  -.007(5)  .012(5)
  C6012  .056(8)  .087(10)  .054(7)  -.025(7)  .001(6)  .012(7)
  C601  .167(18)  .130(15)  .042(7)  -.087(14)  .024(9)  -.021(8)
  N011  .059(7)  .072(7)  .071(7)  -.021(6)  -.007(5)  .033(6)
  C011  .040(6)  .053(7)  .045(6)  -.023(5)  .002(5)  .003(5)
  C012  .063(8)  .048(7)  .058(7)  -.013(6)  -.031(6)  .009(6)
  N021  .129(14)  .185(16)  .084(10)  .082(12)  .023(9)  .005(10)
  C021  .066(9)  .066(9)  .041(6)  -.004(7)  -.004(6)  .005(6)
  C022  .042(6)  .044(7)  .049(6)  -.017(5)  -.019(5)  .008(5)
  N031  .104(10)  .071(8)  .106(9)  -.039(8)  -.048(8)  .005(7)
  C031  .052(7)  .044(7)  .072(8)  .004(6)  -.032(6)  -.011(6)
  C032  .051(7)  .035(7)  .089(9)  -.010(6)  .001(7)  -.007(6)
  C041  .052(7)  .064(8)  .065(8)  -.022(7)  .005(6)  .016(6)
  N051  .092(10)  .081(9)  .120(11)  -.008(8)  -.005(8)  .009(8)
  C051  .049(8)  .065(9)  .093(10)  -.014(7)  .012(7)  .014(7)
  C052  .071(10)  .097(12)  .179(16)  -.038(9)  -.079(11)  .100(12)
  N061  .112(13)  .083(10)  .181(15)  .014(9)  .005(11)  -.053(10)
  C061  .072(9)  .072(9)  .047(7)  -.014(7)  .006(6)  -.022(6)
  C062  .053(7)  .041(6)  .034(5)  -.016(5)  -.007(5)  .008(5)
  N071  .096(10)  .063(8)  .138(11)  -.027(7)  -.080(9)  .033(7)
  C071  .043(6)  .033(6)  .077(8)  -.011(5)  -.023(6)  .019(6)
  C072  .042(6)  .030(6)  .040(5)  -.009(5)  -.005(5)  .007(4)
  O01  .044(4)  .031(4)  .058(4)  -.003(3)  -.020(4)  .001(3)
  O02  .036(4)  .029(4)  .036(3)  -.003(3)  -.019(3)  .005(3)
  O03  .107(9)  .111(9)  .108(8)  -.035(7)  -.039(7)  -.033(6)
  O04  .165(14)  .071(9)  .299(19)  -.046(9)  .085(13)  -.004(10)
  S0s  .212(10)  .251(11)  .339(13)  -.013(8)  .069(9)  .101(9)
 
 
# 5. Molecular Geometry
#----------------------
 
loop_
_geom_bond_atom_site_label_1
_geom_bond_atom_site_label_2
_geom_bond_site_symmetry_1
_geom_bond_site_symmetry_2
_geom_bond_distance
_geom_bond_publ_flag                 #<< enter YES for value to be published
  U11  O10  .  .  2.349(6)  ?
  U11  O1101  .  .  1.793(5)  ?
  U11  O1102  .  .  1.809(6)  ?
  U11  O111  .  .  2.248(5)  ?
  U11  O121  .  .  2.435(5)  ?
  U11  O171  .  .  2.603(5)  ?
  U11  O181  .  .  2.321(6)  ?
  U12  O10  .  .  2.351(7)  ?
  U12  O1201  .  .  1.791(5)  ?
  U12  O1202  .  .  1.786(5)  ?
  U12  O131  .  .  2.590(5)  ?
  U12  O141  .  .  2.232(7)  ?
  U12  O151  .  .  2.308(6)  ?
  U12  O161  .  .  2.490(6)  ?
  U21  O20  .  .  2.341(7)  ?
  U21  O2101  .  .  1.795(5)  ?
  U21  O2102  .  .  1.787(5)  ?
  U21  O211  .  .  2.216(7)  ?
  U21  O221  .  .  2.491(5)  ?
  U21  O271  .  .  2.609(5)  ?
  U21  O281  .  .  2.307(5)  ?
  U22  O20  .  .  2.357(6)  ?
  U22  O2201  .  .  1.797(5)  ?
  U22  O2202  .  .  1.789(5)  ?
  U22  O231  .  .  2.534(5)  ?
  U22  O241  .  .  2.258(5)  ?
  U22  O251  .  .  2.320(6)  ?
  U22  O261  .  .  2.468(4)  ?
  O111  C111  .  .  1.349(11)  ?
  C111  C112  .  .  1.411(11)  ?
  C111  C116  .  .  1.422(13)  ?
  C112  C113  .  .  1.391(13)  ?
  C112  C12  .  .  1.518(13)  ?
  C113  C114  .  .  1.390(14)  ?
  C113  H113  .  .  .961 ?
  C114  C1141  .  .  1.540(14)  ?
  C114  C115  .  .  1.401(11)  ?
  C1141  C1142  .  .  1.528(15)  ?
  C1141  C1143  .  .  1.514(14)  ?
  C1141  C1144  .  .  1.49(2)  ?
  C1142  H1142a  .  .  .952  ?
  C1142  H1142b  .  .  .961  ?
  C1142  H1142c  .  .  .951  ?
  C1143  H1143a  .  .  .976  ?
  C1143  H1143b  .  .  .956  ?
  C1143  H1143c  .  .  .927  ?
  C1144  H1144a  .  .  .947  ?
  C1144  H1144b  .  .  .979  ?
  C1144  H1144c  .  .  .939  ?
  C115  C116  .  .  1.392(13)  ?
  C115  H115  .  .  .954 ?
  C116  C11  .  .  1.502(10)  ?
  C11  C182  .  .  1.491(9)  ?
  C11  H11a  .  .  .965 ?
  C11  H11b  .  .  .937  ?
  O121  C121  .  .  1.346(7)  ?
  C121  C122  .  .  1.416(11)  ?
  C121  C126  .  .  1.398(13)  ?
  C122  C123  .  .  1.392(9)  ?
  C122  C13  .  .  1.493(13)  ?
  C123  C124  .  .  1.385(13)  ?
  C123  H123  .  .  .962 ?
  C124  C1241  .  .  1.542(9)  ?
  C124  C125  .  .  1.380(12)  ?
  C1241  C1242  .  .  1.531(12)  ?
  C1241  C1243  .  .  1.520(15)  ?
  C1241  C1244  .  .  1.525(15)  ?
  C1242  H1242a  .  .  .932 ?
  C1242  H1242b  .  .  .966  ?
  C1242  H1242c  .  .  .978  ?
  C1243  H1243a  .  .  .955 ?
  C1243  H1243b  .  .  .959 ?
  C1243  H1243c  .  .  .943  ?
  C1244  H1244a  .  .  .946 ?
  C1244  H1244b  .  .  .968  ?
  C1244  H1244c  .  .  .963 ?
  C125  C126  .  .  1.387(8)  ?
  C125  H125  .  .  .961 ?
  C126  C12  .  .  1.514(12)  ?
  C12  H12a  .  .  .959 ?
  C12  H12b  .  .  .969 ?
  O131  C131  .  .  1.403(10)  ?
  O131  H131  .  .  1.110 ?
  C131  C132  .  .  1.392(13)  ?
  C131  C136  .  .  1.388(10)  ?
  C132  C133  .  .  1.383(12)  ?
  C132  C14  .  .  1.520(10)  ?
  C133  C134  .  .  1.373(10)  ?
  C133  H133  .  .  .983 ?
  C134  C1341  .  .  1.549(14)  ?
  C134  C135  .  .  1.413(15)  ?
  C1341  C1342  .  .  1.56(2)  ?
  C1341  C1343  .  .  1.551(14)  ?
  C1341  C1344  .  .  1.544(13)  ?
  C1342  H1342a  .  .  .958  ?
  C1342  H1342b  .  .  .932  ?
  C1342  H1342c  .  .  .987  ?
  C1343  H1343a  .  .  .936  ?
  C1343  H1343b  .  .  1.012  ?
  C1343  H1343c  .  .  .936  ?
  C1344  H1344a  .  .  .970  ?
  C1344  H1344b  .  .  .987  ?
  C1344  H1344c  .  .  .945  ?
  C135  C136  .  .  1.392(13)  ?
  C135  H135  .  .  .963 ?
  C136  C13  .  .  1.498(13)  ?
  C13  H13a  .  .  .955 ?
  C13  H13b  .  .  .959 ?
  O141  C141  .  .  1.334(11)  ?
  C141  C142  .  .  1.399(14)  ?
  C141  C146  .  .  1.406(11)  ?
  C142  C143  .  .  1.392(14)  ?
  C142  C15  .  .  1.538(12)  ?
  C143  C144  .  .  1.393(13)  ?
  C143  H143  .  .  .964  ?
  C144  C1441  .  .  1.526(16)  ?
  C144  C145  .  .  1.405(14)  ?
  C1441  C1442  .  .  1.47(2)  ?
  C1441  C1443  .  .  1.40(2)  ?
  C1441  C1444  .  .  1.51(2)  ?
  C1442  H1442a  .  .  .93 ?
  C1442  H1442b  .  .  .985  ?
  C1442  H1442c  .  .  .950  ?
  C1443  H1443a  .  .  .936  ?
  C1443  H1443b  .  .  .918  ?
  C1443  H1443c  .  .  1.015  ?
  C1444  H1444a  .  .  .92 ?
  C1444  H1444b  .  .  1.05 ?
  C1444  H1444c  .  .  1.00 ?
  C145  C146  .  .  1.397(13)  ?
  C145  H145  .  .  .971 ?
  C146  C14  .  .  1.500(13)  ?
  C14  H14a  .  .  .954 ?
  C14  H14b  .  .  .959  ?
  O151  C151  .  .  1.349(9)  ?
  C151  C152  .  .  1.384(12)  ?
  C151  C156  .  .  1.421(16)  ?
  C152  C153  .  .  1.419(12)  ?
  C152  C16  .  .  1.500(16)  ?
  C153  C154  .  .  1.388(17)  ?
  C153  H153  .  .  .965 ?
  C154  C1541  .  .  1.540(13)  ?
  C154  C155  .  .  1.377(14)  ?
  C1541  C1542  .  .  1.50(3)  ?
  C1541  C1543  .  .  1.58(3)  ?
  C1541  C1544  .  .  1.54(2)  ?
  C1541  C1542'  .  .  1.40(4)  ?
  C1541  C1543'  .  .  1.44(4)  ?
  C1541  C1544'  .  .  1.49(5)  ?
  C1542  H1542a  .  .  .98 ?
  C1542  H1542b  .  .  1.00 ?
  C1542  H1542c  .  .  .92 ?
  C1543  H1543a  .  .  .98 ?
  C1543  H1543b  .  .  .86 ?
  C1543  H1543c  .  .  1.00 ?
  C1544  H1544a  .  .  .98 ?
  C1544  H1544b  .  .  .93 ?
  C1544  H1544c  .  .  .95 ?
  C1542'  H1542'a  .  .  1.02 ?
  C1542'  H1542'b  .  .  1.07 ?
  C1542'  H1542'c  .  .  .82 ?
  C1543'  H1543'a  .  .  1.01 ?
  C1543'  H1543'b  .  .  .88 ?
  C1543'  H1543'c  .  .  1.05 ?
  C1544'  H1544'a  .  .  .95 ?
  C1544'  H1544'b  .  .  .98 ?
  C1544'  H1544'c  .  .  1.03 ?
  C155  C156  .  .  1.414(12)  ?
  C155  H155  .  .  .969  ?
  C156  C15  .  .  1.468(12)  ?
  C15  H15a  .  .  .942 ?
  C15  H15b  .  .  .973  ?
  O161  C161  .  .  1.368(9)  ?
  C161  C162  .  .  1.407(11)  ?
  C161  C166  .  .  1.396(12)  ?
  C162  C163  .  .  1.390(11)  ?
  C162  C17  .  .  1.518(11)  ?
  C163  C164  .  .  1.417(11)  ?
  C163  H163  .  .  .966 ?
  C164  C1641  .  .  1.522(12)  ?
  C164  C165  .  .  1.359(12)  ?
  C1641  C1642  .  .  1.553(14)  ?
  C1641  C1643  .  .  1.532(13)  ?
  C1641  C1644  .  .  1.549(16)  ?
  C1642  H1642a  .  .  .962  ?
  C1642  H1642b  .  .  .952  ?
  C1642  H1642c  .  .  .952  ?
  C1643  H1643a  .  .  .962 ?
  C1643  H1643b  .  .  .960  ?
  C1643  H1643c  .  .  .950  ?
  C1644  H1644a  .  .  .952 ?
  C1644  H1644b  .  .  .966  ?
  C1644  H1644c  .  .  .954  ?
  C165  C166  .  .  1.421(12)  ?
  C165  H165  .  .  .961 ?
  C166  C16  .  .  1.499(12)  ?
  C16  H16a  .  .  .968 ?
  C16  H16b  .  .  .950 ?
  O171  C171  .  .  1.374(10)  ?
  O171  H171  .  .  1.042 ?
  C171  C172  .  .  1.389(14)  ?
  C171  C176  .  .  1.400(12)  ?
  C172  C173  .  .  1.381(12)  ?
  C172  C18  .  .  1.517(12)  ?
  C173  C174  .  .  1.405(12)  ?
  C173  H173  .  .  .961  ?
  C174  C1741  .  .  1.523(13)  ?
  C174  C175  .  .  1.405(15)  ?
  C1741  C1742  .  .  1.574(14)  ?
  C1741  C1743  .  .  1.46(2)  ?
  C1741  C1744  .  .  1.497(18)  ?
  C1742  H1742a  .  .  .975  ?
  C1742  H1742b  .  .  .94 ?
  C1742  H1742c  .  .  .967  ?
  C1743  H1743a  .  .  .967  ?
  C1743  H1743b  .  .  .97 ?
  C1743  H1743c  .  .  .929  ?
  C1744  H1744a  .  .  .954  ?
  C1744  H1744b  .  .  .920  ?
  C1744  H1744c  .  .  1.02 ?
  C175  C176  .  .  1.412(11)  ?
  C175  H175  .  .  .956 ?
  C176  C17  .  .  1.490(14)  ?
  C17  H17a  .  .  .957 ?
  C17  H17b  .  .  .972 ?
  O181  C181  .  .  1.334(12)  ?
  C181  C182  .  .  1.393(12)  ?
  C181  C186  .  .  1.428(9)  ?
  C182  C183  .  .  1.401(14)  ?
  C183  C184  .  .  1.394(10)  ?
  C183  H183  .  .  .963 ?
  C184  C1841  .  .  1.534(16)  ?
  C184  C185  .  .  1.391(13)  ?
  C1841  C1842  .  .  1.508(18)  ?
  C1841  C1843  .  .  1.546(17)  ?
  C1841  C1844  .  .  1.528(12)  ?
  C1842  H1842a  .  .  .946  ?
  C1842  H1842b  .  .  .959  ?
  C1842  H1842c  .  .  .972  ?
  C1843  H1843a  .  .  .953  ?
  C1843  H1843b  .  .  .953  ?
  C1843  H1843c  .  .  .928  ?
  C1844  H1844a  .  .  .960  ?
  C1844  H1844b  .  .  1.013  ?
  C1844  H1844c  .  .  .923  ?
  C185  C186  .  .  1.394(15)  ?
  C185  H185  .  .  .977 ?
  C186  C18  .  .  1.504(13)  ?
  C18  H18a  .  .  .967 ?
  C18  H18b  .  .  .953 ?
  O211  C211  .  .  1.355(10)  ?
  C211  C212  .  .  1.400(11)  ?
  C211  C216  .  .  1.411(12)  ?
  C212  C213  .  .  1.392(12)  ?
  C212  C22  .  .  1.511(13)  ?
  C213  C214  .  .  1.392(13)  ?
  C213  H213  .  .  .976 ?
  C214  C2141  .  .  1.529(13)  ?
  C214  C215  .  .  1.390(12)  ?
  C2141  C2142  .  .  1.568(18)  ?
  C2141  C2143  .  .  1.505(17)  ?
  C2141  C2144  .  .  1.513(14)  ?
  C2142  H2142a  .  .  .965  ?
  C2142  H2142b  .  .  .964  ?
  C2142  H2142c  .  .  .986  ?
  C2143  H2143a  .  .  .939  ?
  C2143  H2143b  .  .  .966  ?
  C2143  H2143c  .  .  .974  ?
  C2144  H2144a  .  .  .946  ?
  C2144  H2144b  .  .  1.008  ?
  C2144  H2144c  .  .  .937  ?
  C215  C216  .  .  1.389(12)  ?
  C215  H215  .  .  .965 ?
  C216  C21  .  .  1.497(11)  ?
  C21  C282  .  .  1.504(12)  ?
  C21  H21a  .  .  .951  ?
  C21  H21b  .  .  .955 ?
  O221  C221  .  .  1.393(10)  ?
  C221  C222  .  .  1.400(9)  ?
  C221  C226  .  .  1.400(13)  ?
  C222  C223  .  .  1.384(12)  ?
  C222  C23  .  .  1.520(13)  ?
  C223  C224  .  .  1.403(13)  ?
  C223  H223  .  .  .974 ?
  C224  C2241  .  .  1.518(14)  ?
  C224  C225  .  .  1.386(10)  ?
  C2241  C2242  .  .  1.533(14)  ?
  C2241  C2243  .  .  1.541(12)  ?
  C2241  C2244  .  .  1.511(19)  ?
  C2242  H2242a  .  .  .965  ?
  C2242  H2242b  .  .  .971  ?
  C2242  H2242c  .  .  .928  ?
  C2243  H2243a  .  .  .942  ?
  C2243  H2243b  .  .  .948  ?
  C2243  H2243c  .  .  .986  ?
  C2244  H2244a  .  .  .979  ?
  C2244  H2244b  .  .  .988  ?
  C2244  H2244c  .  .  .924  ?
  C225  C226  .  .  1.385(13)  ?
  C225  H225  .  .  .970 ?
  C226  C22  .  .  1.505(9)  ?
  C22  H22a  .  .  .947 ?
  C22  H22b  .  .  .968  ?
  O231  C231  .  .  1.386(7)  ?
  O231  H231  .  .  .968 ?
  C231  C232  .  .  1.390(12)  ?
  C231  C236  .  .  1.367(12)  ?
  C232  C233  .  .  1.404(8)  ?
  C232  C24  .  .  1.499(12)  ?
  C233  C234  .  .  1.379(12)  ?
  C233  H233  .  .  .958 ?
  C234  C2341  .  .  1.539(9)  ?
  C234  C235  .  .  1.402(13)  ?
  C2341  C2342  .  .  1.547(12)  ?
  C2341  C2343  .  .  1.511(15)  ?
  C2341  C2344  .  .  1.532(16)  ?
  C2342  H2342a  .  .  .948 ?
  C2342  H2342b  .  .  .942  ?
  C2342  H2342c  .  .  .972  ?
  C2343  H2343a  .  .  .933 ?
  C2343  H2343b  .  .  .971 ?
  C2343  H2343c  .  .  .955  ?
  C2344  H2344a  .  .  .948 ?
  C2344  H2344b  .  .  .934  ?
  C2344  H2344c  .  .  .984 ?
  C235  C236  .  .  1.406(8)  ?
  C235  H235  .  .  .961 ?
  C236  C23  .  .  1.524(13)  ?
  C23  H23a  .  .  .965 ?
  C23  H23b  .  .  .954 ?
  O241  C241  .  .  1.354(10)  ?
  C241  C242  .  .  1.386(13)  ?
  C241  C246  .  .  1.386(10)  ?
  C242  C243  .  .  1.398(12)  ?
  C242  C25  .  .  1.535(10)  ?
  C243  C244  .  .  1.381(11)  ?
  C243  H243  .  .  .969  ?
  C244  C2441  .  .  1.549(14)  ?
  C244  C245  .  .  1.395(14)  ?
  C2441  C2442  .  .  1.539(11)  ?
  C2441  C2443  .  .  1.496(15)  ?
  C2441  C2444  .  .  1.552(11)  ?
  C2442  H2442a  .  .  .950  ?
  C2442  H2442b  .  .  .956  ?
  C2442  H2442c  .  .  .936 ?
  C2443  H2443a  .  .  .938  ?
  C2443  H2443b  .  .  .975 ?
  C2443  H2443c  .  .  .956 ?
  C2444  H2444a  .  .  .926  ?
  C2444  H2444b  .  .  .979 ?
  C2444  H2444c  .  .  .968  ?
  C245  C246  .  .  1.398(13)  ?
  C245  H245  .  .  .960 ?
  C246  C24  .  .  1.508(14)  ?
  C24  H24a  .  .  .958 ?
  C24  H24b  .  .  .963 ?
  O251  C251  .  .  1.352(12)  ?
  C251  C252  .  .  1.399(9)  ?
  C251  C256  .  .  1.428(12)  ?
  C252  C253  .  .  1.402(15)  ?
  C252  C26  .  .  1.495(12)  ?
  C253  C254  .  .  1.400(13)  ?
  C253  H253  .  .  .945 ?
  C254  C2541  .  .  1.538(16)  ?
  C254  C255  .  .  1.394(10)  ?
  C2541  C2542  .  .  1.547(12)  ?
  C2541  C2543  .  .  1.549(16)  ?
  C2541  C2544  .  .  1.507(16)  ?
  C2542  H2542a  .  .  .927  ?
  C2542  H2542b  .  .  1.004  ?
  C2542  H2542c  .  .  .929  ?
  C2543  H2543a  .  .  .953  ?
  C2543  H2543b  .  .  .958  ?
  C2543  H2543c  .  .  .941  ?
  C2544  H2544a  .  .  .955  ?
  C2544  H2544b  .  .  .939  ?
  C2544  H2544c  .  .  .981  ?
  C255  C256  .  .  1.397(14)  ?
  C255  H255  .  .  .963 ?
  C256  C25  .  .  1.540(9)  ?
  C25  H25a  .  .  .952  ?
  C25  H25b  .  .  .954 ?
  O261  C261  .  .  1.361(10)  ?
  O261  H271  .  .  1.412 ?
  C261  C262  .  .  1.406(12)  ?
  C261  C266  .  .  1.407(14)  ?
  C262  C263  .  .  1.415(12)  ?
  C262  C27  .  .  1.519(14)  ?
  C263  C264  .  .  1.373(15)  ?
  C263  H263  .  .  .977 ?
  C264  C2641  .  .  1.525(13)  ?
  C264  C265  .  .  1.395(12)  ?
  C2641  C2642  .  .  1.550(13)  ?
  C2641  C2643  .  .  1.539(15)  ?
  C2641  C2644  .  .  1.49(2)  ?
  C2642  H2642a  .  .  .948  ?
  C2642  H2642b  .  .  .956  ?
  C2642  H2642c  .  .  .949  ?
  C2643  H2643a  .  .  .985  ?
  C2643  H2643b  .  .  .916  ?
  C2643  H2643c  .  .  .960  ?
  C2644  H2644a  .  .  .976  ?
  C2644  H2644b  .  .  .969  ?
  C2644  H2644c  .  .  .961  ?
  C265  C266  .  .  1.421(12)  ?
  C265  H265  .  .  .950  ?
  C266  C26  .  .  1.504(12)  ?
  C26  H26a  .  .  .958 ?
  C26  H26b  .  .  .955 ?
  O271  C271  .  .  1.388(9)  ?
  O271  H271  .  .  1.267 ?
  C271  C272  .  .  1.412(10)  ?
  C271  C276  .  .  1.385(11)  ?
  C272  C273  .  .  1.411(11)  ?
  C272  C28  .  .  1.501(11)  ?
  C273  C274  .  .  1.376(11)  ?
  C273  H273  .  .  .957 ?
  C274  C2741  .  .  1.548(11)  ?
  C274  C275  .  .  1.411(11)  ?
  C2741  C2742  .  .  1.544(14)  ?
  C2741  C2743  .  .  1.534(13)  ?
  C2741  C2744  .  .  1.509(16)  ?
  C2742  H2742a  .  .  .972 ?
  C2742  H2742b  .  .  .952  ?
  C2742  H2742c  .  .  .954  ?
  C2743  H2743a  .  .  .934 ?
  C2743  H2743b  .  .  .974  ?
  C2743  H2743c  .  .  .954  ?
  C2744  H2744a  .  .  .964 ?
  C2744  H2744b  .  .  .968  ?
  C2744  H2744c  .  .  .950  ?
  C275  C276  .  .  1.395(11)  ?
  C275  H275  .  .  .952 ?
  C276  C27  .  .  1.541(10)  ?
  C27  H27a  .  .  .954 ?
  C27  H27b  .  .  .948 ?
  O281  C281  .  .  1.360(8)  ?
  C281  C282  .  .  1.403(14)  ?
  C281  C286  .  .  1.420(11)  ?
  C282  C283  .  .  1.389(10)  ?
  C283  C284  .  .  1.399(12)  ?
  C283  H283  .  .  .973  ?
  C284  C2841  .  .  1.539(11)  ?
  C284  C285  .  .  1.376(16)  ?
  C2841  C2842  .  .  1.52(2)  ?
  C2841  C2843  .  .  1.486(16)  ?
  C2841  C2844  .  .  1.497(16)  ?
  C2842  H2842a  .  .  .946  ?
  C2842  H2842b  .  .  1.017  ?
  C2842  H2842c  .  .  .978  ?
  C2843  H2843a  .  .  .952  ?
  C2843  H2843b  .  .  .940  ?
  C2843  H2843c  .  .  .992  ?
  C2844  H2844a  .  .  .934  ?
  C2844  H2844b  .  .  .992  ?
  C2844  H2844c  .  .  .947  ?
  C285  C286  .  .  1.400(11)  ?
  C285  H285  .  .  .979 ?
  C286  C28  .  .  1.502(15)  ?
  C28  H28a  .  .  .957 ?
  C28  H28b  .  .  .965 ?
  N101  C1011  .  .  1.520(16)  ?
  N101  C1012  .  .  1.478(17)  ?
  N101  C101  .  .  1.508(13)  ?
  N101  H101  .  .  .915 ?
  C1011  H1011b  .  .  .891  ?
  C1011  H1011c  .  .  .966  ?
  C1011  H1011a  .  .  .971  ?
  C1012  H1012a  .  .  .966  ?
  C1012  H1012b  .  .  .965  ?
  C1012  H1012c  .  .  .936  ?
  C101  C102  .  .  1.532(16)  ?
  C101  H101a  .  .  .947 ?
  C101  H101b  .  .  .968  ?
  C102  N102  .  .  1.438(12)  ?
  C102  H102a  .  .  .948  ?
  C102  H102b  .  .  .963  ?
  N102  C1021  .  .  1.48(2)  ?
  N102  C1022  .  .  1.46(2)  ?
  C1021  H1021a  .  .  .944  ?
  C1021  H1021b  .  .  .951  ?
  C1021  H1021c  .  .  .97 ?
  C1022  H1022a  .  .  .991  ?
  C1022  H1022b  .  .  .932  ?
  C1022  H1022c  .  .  .955  ?
  N201  C2011  .  .  1.508(11)  ?
  N201  C2012  .  .  1.517(10)  ?
  N201  C201  .  .  1.496(13)  ?
  N201  H201  .  .  1.049 ?
  C2011  H2011a  .  .  .958 ?
  C2011  H2011b  .  .  .943 ?
  C2011  H2011c  .  .  .958  ?
  C2012  H2012a  .  .  .942 ?
  C2012  H2012b  .  .  .954  ?
  C2012  H2012c  .  .  .958 ?
  C201  C202  .  .  1.528(12)  ?
  C201  H201a  .  .  .964 ?
  C201  H201b  .  .  .950 ?
  C202  N202  .  .  1.509(18)  ?
  C202  H202a  .  .  .953  ?
  C202  H202b  .  .  .939 ?
  N202  C2021  .  .  1.39(2)  ?
  N202  C2022  .  .  1.44(2)  ?
  C2021  H2021a  .  .  1.03 ?
  C2021  H2021b  .  .  .98 ?
  C2021  H2021c  .  .  .91 ?
  C2022  H2022a  .  .  .96 ?
  C2022  H2022b  .  .  .958  ?
  C2022  H2022c  .  .  1.020  ?
  N301  C3011  .  .  1.457(17)  ?
  N301  C3012  .  .  1.50(2)  ?
  N301  C301  .  .  1.490(14)  ?
  N301  H301  .  .  .939 ?
  C3011  H3011a  .  .  .926  ?
  C3011  H3011b  .  .  .945  ?
  C3011  H3011c  .  .  1.007  ?
  C3012  H3012a  .  .  .977  ?
  C3012  H3012b  .  .  .972  ?
  C3012  H3012c  .  .  .951  ?
  C301  C302  .  .  1.552(19)  ?
  C301  H301a  .  .  .934  ?
  C301  H301b  .  .  .973  ?
  C302  N302  .  .  1.41(2)  ?
  C302  H302a  .  .  .967  ?
  C302  H302b  .  .  .976  ?
  N302  C3021  .  .  1.49(2)  ?
  N302  C3022  .  .  1.50(2)  ?
  C3021  H3021a  .  .  .92 ?
  C3021  H3021b  .  .  1.025  ?
  C3021  H3021c  .  .  .947  ?
  C3022  H3022a  .  .  1.09 ?
  C3022  H3022b  .  .  .852  ?
  C3022  H3022c  .  .  .96 ?
  N401  C4011  .  .  1.486(15)  ?
  N401  C4012  .  .  1.473(14)  ?
  N401  C401  .  .  1.39(2)  ?
  N401  C401'  .  .  1.69(3)  ?
  N401  H401  .  .  .937 ?
  C4011  H4011a  .  .  .981  ?
  C4011  H4011b  .  .  1.003  ?
  C4011  H4011c  .  .  .894  ?
  C4012  H4012a  .  .  .932  ?
  C4012  H4012b  .  .  .939  ?
  C4012  H4012c  .  .  .941  ?
  C401  C402  .  .  1.52(2)  ?
  C401  H401a  .  .  .971  ?
  C401  H401b  .  .  .935  ?
  C401'  C402'  .  .  1.52(3)  ?
  C401'  H401'a  .  .  .95 ?
  C401'  H401'b  .  .  .977  ?
  C402  N402  .  .  1.48(3)  ?
  C402  H402a  .  .  .961  ?
  C402  H402b  .  .  .964  ?
  C402'  N402'  .  .  1.48(3)  ?
  C402'  H402'a  .  .  .960  ?
  C402'  H402'b  .  .  .998  ?
  N402  C4021  .  .  1.43(3)  ?
  N402  C4022  .  .  1.39(3)  ?
  N402'  C4021'  .  .  1.47(3)  ?
  N402'  C4022'  .  .  1.63(2)  ?
  C4021  H4021a  .  .  .87 ?
  C4021  H4021b  .  .  1.02 ?
  C4021  H4021c  .  .  .98 ?
  C4022  H4022a  .  .  .942  ?
  C4022  H4022b  .  .  .99 ?
  C4022  H4022c  .  .  .93 ?
  C4021'  H4021'a  .  .  .91 ?
  C4021'  H4021'b  .  .  .99 ?
  C4021'  H4021'c  .  .  .97 ?
  C4022'  H4022'a  .  .  .95 ?
  C4022'  H4022'b  .  .  1.10 ?
  C4022'  H4022'c  .  .  1.12 ?
  N501  C5011  .  .  1.53(2)  ?
  N501  C5011'  .  .  1.38(3)  ?
  N501  C5012  .  .  1.38(2)  ?
  N501  C5012'  .  .  1.63(2)  ?
  N501  C501  .  .  1.561(18)  ?
  N501  C501'  .  .  1.45(3)  ?
  N501  H501  .  .  .991 ?
  C5011  H5011a  .  .  .911  ?
  C5011  H5011b  .  .  .959  ?
  C5011  H5011c  .  .  .98 ?
  C5011'  H5011'a  .  .  .94 ?
  C5011'  H5011'b  .  .  .95 ?
  C5011'  H5011'c  .  .  .99 ?
  C5012  H5012a  .  .  .940  ?
  C5012  H5012b  .  .  .98 ?
  C5012  H5012c  .  .  .983  ?
  C5012'  H5012'a  .  .  1.00 ?
  C5012'  H5012'b  .  .  .94 ?
  C5012'  H5012'c  .  .  .95 ?
  C501  C502  .  .  1.39(2)  ?
  C501  H501a  .  .  .98 ?
  C501  H501b  .  .  .951  ?
  C501'  C502  .  .  1.544(18)  ?
  C501'  H501'a  .  .  .98 ?
  C501'  H501'b  .  .  .95 ?
  C502  N502  .  .  1.41(2)  ?
  C502  N502'  .  .  1.35(3)  ?
  C502  H502a  .  .  .942  ?
  C502  H502b  .  .  .959  ?
  C502  H502'a  .  .  .952  ?
  C502  H502'b  .  .  .957  ?
  N502  C5021  .  .  1.47(2)  ?
  N502  C5022  .  .  1.46(4)  ?
  N502'  C5021  .  .  1.64(2)  ?
  N502'  C5022'  .  .  1.43(4)  ?
  C5021  H5021a  .  .  .963  ?
  C5021  H5021b  .  .  .973  ?
  C5021  H5021c  .  .  .961  ?
  C5021  H5021'a  .  .  .938  ?
  C5021  H5021'b  .  .  .957  ?
  C5021  H5021'c  .  .  .978  ?
  C5022  H5022a  .  .  .98 ?
  C5022  H5022b  .  .  .96 ?
  C5022  H5022c  .  .  .97 ?
  C5022'  H5022'a  .  .  .97 ?
  C5022'  H5022'b  .  .  .99 ?
  C5022'  H5022'c  .  .  .95 ?
  N601  C6011  .  .  1.500(18)  ?
  N601  C6012  .  .  1.491(15)  ?
  N601  C601  .  .  1.469(18)  ?
  N601  H601  .  .  .948  ?
  C6011  H6011a  .  .  .972  ?
  C6011  H6011b  .  .  .945  ?
  C6011  H6011c  .  .  .962  ?
  C6012  H6012a  .  .  .954  ?
  C6012  H6012b  .  .  .969  ?
  C6012  H6012c  .  .  .952  ?
  C601  C602  .  .  1.36(2)  ?
  C601  H601a  .  .  .96 ?
  C601  H601b  .  .  1.041  ?
  C602  N602  .  .  1.61(2)  ?
  C602  H602a  .  .  .87 ?
  C602  H602b  .  .  1.20 ?
  N602  C6021  .  .  1.60(4)  ?
  N602  C6022  .  .  1.79(4)  ?
  C6021  H6021a  .  .  1.08 ?
  C6021  H6021b  .  .  .79 ?
  C6021  H6021c  .  .  1.14 ?
  C6022  H6022a  .  .  1.05 ?
  C6022  H6022b  .  .  .94 ?
  C6022  H6022c  .  .  .84 ?
  N011  C011  .  .  1.151(14)  ?
  C011  C012  .  .  1.450(15)  ?
  C012  H012a  .  .  .983  ?
  C012  H012b  .  .  .946  ?
  C012  H012c  .  .  .962  ?
  N021  C021  .  .  1.137(17)  ?
  C021  C022  .  .  1.439(14)  ?
  C022  H022a  .  .  .962  ?
  C022  H022b  .  .  .940  ?
  C022  H022c  .  .  .952  ?
  N031  C031  .  .  1.176(18)  ?
  C031  C032  .  .  1.419(18)  ?
  C032  H032a  .  .  .966  ?
  C032  H032b  .  .  .961 ?
  C032  H032c  .  .  .958  ?
  C042  C041  .  .  1.42(2)  ?
  C042  H042a  .  .  .981  ?
  C042  H042b  .  .  .963  ?
  C042  H042c  .  .  .957  ?
  C041  N041  .  .  1.15(2)  ?
  N051  C051  .  .  1.217(18)  ?
  C051  C052  .  .  1.40(2)  ?
  C052  H052a  .  .  .931  ?
  C052  H052b  .  .  .991  ?
  C052  H052c  .  .  .97 ?
  N061  C061  .  .  1.149(16)  ?
  C061  C062  .  .  1.406(13)  ?
  C062  H062a  .  .  .962  ?
  C062  H062b  .  .  .955 ?
  C062  H062c  .  .  .966  ?
  N071  C071  .  .  1.13(2)  ?
  C071  C072  .  .  1.459(18)  ?
  C072  H072a  .  .  .957 ?
  C072  H072b  .  .  .973 ?
  C072  H072c  .  .  .962  ?
  N081  C081  .  .  1.26(4)  ?
  C081  C082  .  .  1.45(4)  ?
  N091  C091  .  .  1.14(3)  ?
  C091  C092  .  .  1.53(4)  ?
  N0101  C0101  .  .  1.33(3)  ?
  C0101  C0102  .  .  1.74(3)  ?
  N0111  C0111  .  .  1.24(4)  ?
  C0111  C0112  .  .  1.21(4)  ?
  N0121  C0121  .  .  .97(3)  ?
  C0121  C0122  .  .  1.51(3)  ?
  O01  H01a  .  .  .930 ?
  O01  H01b  .  .  1.213 ?
  O02  H02a  .  .  .919 ?
  O02  H02b  .  .  .965 ?
  O0s  S0s  .  .  1.42(3)  ?
  S0s  C01s  .  .  1.92(3)  ?
  S0s  C02s  .  .  1.88(4)  ?
  C01s  H01sa  .  .  1.07 ?
  C01s  H01sb  .  .  .96 ?
  C01s  H01sc  .  .  .85 ?
  C02s  H02sa  .  .  .93 ?
  C02s  H02sb  .  .  .96 ?
  C02s  H02sc  .  .  .97 ?
 
loop_
_geom_angle_atom_site_label_1
_geom_angle_atom_site_label_2
_geom_angle_atom_site_label_3
_geom_angle_site_symmetry_1
_geom_angle_site_symmetry_2
_geom_angle_site_symmetry_3
_geom_angle
_geom_angle_publ_flag                #<< enter YES for value to be published
  O10  U11  O1101  .  .  .  84.7(2)  ?
  O10  U11  O1102  .  .  .  95.0(2)  ?
  O10  U11  O111  .  .  .  145.26(18)  ?
  O10  U11  O121  .  .  .  70.31(17)  ?
  O10  U11  O171  .  .  .  64.89(18)  ?
  O10  U11  O181  .  .  .  136.95(16)  ?
  O1101  U11  O1102  .  .  .  177.7(2)  ?
  O1101  U11  O111  .  .  .  89.7(2)  ?
  O1101  U11  O121  .  .  .  93.9(2)  ?
  O1101  U11  O171  .  .  .  91.9(2)  ?
  O1101  U11  O181  .  .  .  89.8(2)  ?
  O1102  U11  O111  .  .  .  91.8(2)  ?
  O1102  U11  O121  .  .  .  88.1(2)  ?
  O1102  U11  O171  .  .  .  85.9(2)  ?
  O1102  U11  O181  .  .  .  88.9(2)  ?
  O111  U11  O121  .  .  .  75.9(2)  ?
  O111  U11  O171  .  .  .  149.7(2)  ?
  O111  U11  O181  .  .  .  77.09(19)  ?
  O121  U11  O171  .  .  .  134.0(2)  ?
  O121  U11  O181  .  .  .  152.75(17)  ?
  O171  U11  O181  .  .  .  72.70(19)  ?
  O10  U12  O1201  .  .  .  83.9(3)  ?
  O10  U12  O1202  .  .  .  94.7(3)  ?
  O10  U12  O131  .  .  .  66.16(19)  ?
  O10  U12  O141  .  .  .  137.92(19)  ?
  O10  U12  O151  .  .  .  142.86(19)  ?
  O10  U12  O161  .  .  .  69.2(2)  ?
  O1201  U12  O1202  .  .  .  178.6(3)  ?
  O1201  U12  O131  .  .  .  94.8(2)  ?
  O1201  U12  O141  .  .  .  88.1(3)  ?
  O1201  U12  O151  .  .  .  90.1(2)  ?
  O1201  U12  O161  .  .  .  92.1(2)  ?
  O1202  U12  O131  .  .  .  84.8(2)  ?
  O1202  U12  O141  .  .  .  93.1(3)  ?
  O1202  U12  O151  .  .  .  90.9(2)  ?
  O1202  U12  O161  .  .  .  87.2(2)  ?
  O131  U12  O141  .  .  .  73.5(2)  ?
  O131  U12  O151  .  .  .  151.0(2)  ?
  O131  U12  O161  .  .  .  133.7(2)  ?
  O141  U12  O151  .  .  .  78.1(2)  ?
  O141  U12  O161  .  .  .  152.6(2)  ?
  O151  U12  O161  .  .  .  74.5(2)  ?
  O20  U21  O2101  .  .  .  84.2(3)  ?
  O20  U21  O2102  .  .  .  95.8(3)  ?
  O20  U21  O211  .  .  .  141.93(18)  ?
  O20  U21  O221  .  .  .  69.0(2)  ?
  O20  U21  O271  .  .  .  65.97(18)  ?
  O20  U21  O281  .  .  .  137.0(2)  ?
  O2101  U21  O2102  .  .  .  177.8(2)  ?
  O2101  U21  O211  .  .  .  87.8(3)  ?
  O2101  U21  O221  .  .  .  94.8(2)  ?
  O2101  U21  O271  .  .  .  92.0(2)  ?
  O2101  U21  O281  .  .  .  88.7(2)  ?
  O2102  U21  O211  .  .  .  93.5(3)  ?
  O2102  U21  O221  .  .  .  87.2(2)  ?
  O2102  U21  O271  .  .  .  86.0(2)  ?
  O2102  U21  O281  .  .  .  89.9(2)  ?
  O211  U21  O221  .  .  .  74.7(2)  ?
  O211  U21  O271  .  .  .  151.7(2)  ?
  O211  U21  O281  .  .  .  79.7(2)  ?
  O221  U21  O271  .  .  .  133.5(2)  ?
  O221  U21  O281  .  .  .  154.0(2)  ?
  O271  U21  O281  .  .  .  72.0(2)  ?
  O20  U22  O2201  .  .  .  84.7(2)  ?
  O20  U22  O2202  .  .  .  94.7(2)  ?
  O20  U22  O231  .  .  .  67.16(16)  ?
  O20  U22  O241  .  .  .  139.96(18)  ?
  O20  U22  O251  .  .  .  142.91(16)  ?
  O20  U22  O261  .  .  .  69.26(18)  ?
  O2201  U22  O2202  .  .  .  179.3(3)  ?
  O2201  U22  O231  .  .  .  93.4(2)  ?
  O2201  U22  O241  .  .  .  89.2(2)  ?
  O2201  U22  O251  .  .  .  91.3(2)  ?
  O2201  U22  O261  .  .  .  93.2(2)  ?
  O2202  U22  O231  .  .  .  86.4(2)  ?
  O2202  U22  O241  .  .  .  91.3(2)  ?
  O2202  U22  O251  .  .  .  89.2(2)  ?
  O2202  U22  O261  .  .  .  86.5(2)  ?
  O231  U22  O241  .  .  .  73.8(2)  ?
  O231  U22  O251  .  .  .  149.92(15)  ?
  O231  U22  O261  .  .  .  135.0(2)  ?
  O241  U22  O251  .  .  .  76.60(19)  ?
  O241  U22  O261  .  .  .  150.7(2)  ?
  O251  U22  O261  .  .  .  74.20(19)  ?
  U11  O10  U12  .  .  .  145.6(2)  ?
  U21  O20  U22  .  .  .  143.7(2)  ?
  U11  O111  C111  .  .  .  136.3(4)  ?
  O111  C111  C112  .  .  .  120.5(8)  ?
  O111  C111  C116  .  .  .  121.4(7)  ?
  C112  C111  C116  .  .  .  118.1(8)  ?
  C111  C112  C113  .  .  .  119.7(9)  ?
  C111  C112  C12  .  .  .  117.9(8)  ?
  C113  C112  C12  .  .  .  122.4(7)  ?
  C112  C113  C114  .  .  .  122.6(7)  ?
  C112  C113  H113  .  .  .  117.4 ?
  C114  C113  H113  .  .  .  120.0 ?
  C113  C114  C1141  .  .  .  121.1(7)  ?
  C113  C114  C115  .  .  .  117.9(8)  ?
  C1141  C114  C115  .  .  .  121.0(9)  ?
  C114  C1141  C1142  .  .  .  110.0(8)  ?
  C114  C1141  C1143  .  .  .  108.8(10)  ?
  C114  C1141  C1144  .  .  .  113.1(8)  ?
  C1142  C1141  C1143  .  .  .  105.7(9)  ?
  C1142  C1141  C1144  .  .  .  107.5(10)  ?
  C1143  C1141  C1144  .  .  .  111.5(10)  ?
  C1141  C1142  H1142a  .  .  .  110.4  ?
  C1141  C1142  H1142b  .  .  .  109.3  ?
  C1141  C1142  H1142c  .  .  .  110.9  ?
  H1142a  C1142  H1142b  .  .  .  108.4  ?
  H1142a  C1142  H1142c  .  .  .  109.2  ?
  H1142b  C1142  H1142c  .  .  .  108.4  ?
  C1141  C1143  H1143a  .  .  .  108.2  ?
  C1141  C1143  H1143b  .  .  .  109.9  ?
  C1141  C1143  H1143c  .  .  .  111.6  ?
  H1143a  C1143  H1143b  .  .  .  106.9  ?
  H1143a  C1143  H1143c  .  .  .  109.2  ?
  H1143b  C1143  H1143c  .  .  .  110.9  ?
  C1141  C1144  H1144a  .  .  .  110.8  ?
  C1141  C1144  H1144b  .  .  .  109.2  ?
  C1141  C1144  H1144c  .  .  .  110.8  ?
  H1144a  C1144  H1144b  .  .  .  107.4  ?
  H1144a  C1144  H1144c  .  .  .  110.7  ?
  H1144b  C1144  H1144c  .  .  .  107.9  ?
  C114  C115  C116  .  .  .  121.2(9)  ?
  C114  C115  H115  .  .  .  120.3 ?
  C116  C115  H115  .  .  .  118.5 ?
  C111  C116  C115  .  .  .  120.5(7)  ?
  C111  C116  C11  .  .  .  118.2(8)  ?
  C115  C116  C11  .  .  .  121.2(8)  ?
  C116  C11  C182  .  .  .  111.6(6)  ?
  C116  C11  H11a  .  .  .  108.5 ?
  C116  C11  H11b  .  .  .  109.9 ?
  C182  C11  H11a  .  .  .  107.5 ?
  C182  C11  H11b  .  .  .  110.1 ?
  H11a  C11  H11b  .  .  .  109.2 ?
  U11  O121  C121  .  .  .  126.3(5)  ?
  O121  C121  C122  .  .  .  120.4(8)  ?
  O121  C121  C126  .  .  .  121.0(7)  ?
  C122  C121  C126  .  .  .  118.6(6)  ?
  C121  C122  C123  .  .  .  118.6(8)  ?
  C121  C122  C13  .  .  .  119.2(6)  ?
  C123  C122  C13  .  .  .  122.1(7)  ?
  C122  C123  C124  .  .  .  123.7(8)  ?
  C122  C123  H123  .  .  .  118.3 ?
  C124  C123  H123  .  .  .  118.0 ?
  C123  C124  C1241  .  .  .  121.0(8)  ?
  C123  C124  C125  .  .  .  116.1(6)  ?
  C1241  C124  C125  .  .  .  122.9(8)  ?
  C124  C1241  C1242  .  .  .  109.4(7)  ?
  C124  C1241  C1243  .  .  .  110.7(8)  ?
  C124  C1241  C1244  .  .  .  112.0(7)  ?
  C1242  C1241  C1243  .  .  .  109.8(7)  ?
  C1242  C1241  C1244  .  .  .  107.1(8)  ?
  C1243  C1241  C1244  .  .  .  107.8(7)  ?
  C1241  C1242  H1242a  .  .  .  112.7 ?
  C1241  C1242  H1242b  .  .  .  110.2 ?
  C1241  C1242  H1242c  .  .  .  109.5 ?
  H1242a  C1242  H1242b  .  .  .  109.7 ?
  H1242a  C1242  H1242c  .  .  .  108.6  ?
  H1242b  C1242  H1242c  .  .  .  105.9 ?
  C1241  C1243  H1243a  .  .  .  109.7  ?
  C1241  C1243  H1243b  .  .  .  109.7 ?
  C1241  C1243  H1243c  .  .  .  110.1 ?
  H1243a  C1243  H1243b  .  .  .  108.3 ?
  H1243a  C1243  H1243c  .  .  .  109.7 ?
  H1243b  C1243  H1243c  .  .  .  109.3  ?
  C1241  C1244  H1244a  .  .  .  111.7 ?
  C1241  C1244  H1244b  .  .  .  110.1 ?
  C1241  C1244  H1244c  .  .  .  111.0  ?
  H1244a  C1244  H1244b  .  .  .  108.3  ?
  H1244a  C1244  H1244c  .  .  .  108.7 ?
  H1244b  C1244  H1244c  .  .  .  107.0 ?
  C124  C125  C126  .  .  .  123.2(8)  ?
  C124  C125  H125  .  .  .  119.4 ?
  C126  C125  H125  .  .  .  117.4 ?
  C121  C126  C125  .  .  .  119.8(7)  ?
  C121  C126  C12  .  .  .  121.0(6)  ?
  C125  C126  C12  .  .  .  119.2(8)  ?
  C112  C12  C126  .  .  .  114.2(6)  ?
  C112  C12  H12a  .  .  .  109.0 ?
  C112  C12  H12b  .  .  .  107.9 ?
  C126  C12  H12a  .  .  .  109.6 ?
  C126  C12  H12b  .  .  .  108.8 ?
  H12a  C12  H12b  .  .  .  107.2 ?
  U12  O131  C131  .  .  .  125.0(5)  ?
  U12  O131  H131  .  .  .  103.7 ?
  C131  O131  H131  .  .  .  129.7 ?
  O131  C131  C132  .  .  .  117.6(6)  ?
  O131  C131  C136  .  .  .  120.7(8)  ?
  C132  C131  C136  .  .  .  121.7(8)  ?
  C131  C132  C133  .  .  .  118.8(7)  ?
  C131  C132  C14  .  .  .  122.0(8)  ?
  C133  C132  C14  .  .  .  119.2(8)  ?
  C132  C133  C134  .  .  .  121.8(9)  ?
  C132  C133  H133  .  .  .  118.9 ?
  C134  C133  H133  .  .  .  119.2 ?
  C133  C134  C1341  .  .  .  120.4(9)  ?
  C133  C134  C135  .  .  .  118.3(8)  ?
  C1341  C134  C135  .  .  .  121.3(7)  ?
  C134  C1341  C1342  .  .  .  109.4(8)  ?
  C134  C1341  C1343  .  .  .  109.6(8)  ?
  C134  C1341  C1344  .  .  .  112.1(10)  ?
  C1342  C1341  C1343  .  .  .  107.3(11)  ?
  C1342  C1341  C1344  .  .  .  109.7(9)  ?
  C1343  C1341  C1344  .  .  .  108.6(7)  ?
  C1341  C1342  H1342a  .  .  .  110.6  ?
  C1341  C1342  H1342b  .  .  .  112.8  ?
  C1341  C1342  H1342c  .  .  .  109.3  ?
  H1342a  C1342  H1342b  .  .  .  110.3  ?
  H1342a  C1342  H1342c  .  .  .  105.8  ?
  H1342b  C1342  H1342c  .  .  .  107.8  ?
  C1341  C1343  H1343a  .  .  .  112.5  ?
  C1341  C1343  H1343b  .  .  .  107.5  ?
  C1341  C1343  H1343c  .  .  .  113.0 ?
  H1343a  C1343  H1343b  .  .  .  105.5  ?
  H1343a  C1343  H1343c  .  .  .  112.0  ?
  H1343b  C1343  H1343c  .  .  .  105.5  ?
  C1341  C1344  H1344a  .  .  .  112.0  ?
  C1341  C1344  H1344b  .  .  .  111.2 ?
  C1341  C1344  H1344c  .  .  .  113.2  ?
  H1344a  C1344  H1344b  .  .  .  104.9  ?
  H1344a  C1344  H1344c  .  .  .  108.2 ?
  H1344b  C1344  H1344c  .  .  .  106.8  ?
  C134  C135  C136  .  .  .  121.3(7)  ?
  C134  C135  H135  .  .  .  119.1 ?
  C136  C135  H135  .  .  .  119.5  ?
  C131  C136  C135  .  .  .  118.0(8)  ?
  C131  C136  C13  .  .  .  121.2(8)  ?
  C135  C136  C13  .  .  .  120.6(6)  ?
  C122  C13  C136  .  .  .  113.6(7)  ?
  C122  C13  H13a  .  .  .  109.2 ?
  C122  C13  H13b  .  .  .  108.3 ?
  C136  C13  H13a  .  .  .  109.1 ?
  C136  C13  H13b  .  .  .  108.3 ?
  H13a  C13  H13b  .  .  .  108.3 ?
  U12  O141  C141  .  .  .  141.6(5)  ?
  O141  C141  C142  .  .  .  122.7(8)  ?
  O141  C141  C146  .  .  .  119.2(8)  ?
  C142  C141  C146  .  .  .  118.1(8)  ?
  C141  C142  C143  .  .  .  120.4(8)  ?
  C141  C142  C15  .  .  .  119.0(9)  ?
  C143  C142  C15  .  .  .  120.1(9)  ?
  C142  C143  C144  .  .  .  122.8(9)  ?
  C142  C143  H143  .  .  .  117.8 ?
  C144  C143  H143  .  .  .  119.4  ?
  C143  C144  C1441  .  .  .  121.5(10)  ?
  C143  C144  C145  .  .  .  116.1(9)  ?
  C1441  C144  C145  .  .  .  122.3(9)  ?
  C144  C1441  C1442  .  .  .  111.1(13)  ?
  C144  C1441  C1443  .  .  .  116.8(11)  ?
  C144  C1441  C1444  .  .  .  111.5(9)  ?
  C1442  C1441  C1443  .  .  .  110.1(12)  ?
  C1442  C1441  C1444  .  .  .  99.7(13)  ?
  C1443  C1441  C1444  .  .  .  106.2(15)  ?
  C1441  C1442  H1442a  .  .  .  111.2  ?
  C1441  C1442  H1442b  .  .  .  109.2  ?
  C1441  C1442  H1442c  .  .  .  111.1  ?
  H1442a  C1442  H1442b  .  .  .  107.8  ?
  H1442a  C1442  H1442c  .  .  .  110.8  ?
  H1442b  C1442  H1442c  .  .  .  107 ?
  C1441  C1443  H1443a  .  .  .  111.4  ?
  C1441  C1443  H1443b  .  .  .  113 ?
  C1441  C1443  H1443c  .  .  .  106.1  ?
  H1443a  C1443  H1443b  .  .  .  113.6  ?
  H1443a  C1443  H1443c  .  .  .  105 ?
  H1443b  C1443  H1443c  .  .  .  106.6  ?
  C1441  C1444  H1444a  .  .  .  119.0  ?
  C1441  C1444  H1444b  .  .  .  110.1  ?
  C1441  C1444  H1444c  .  .  .  115 ?
  H1444a  C1444  H1444b  .  .  .  104 ?
  H1444a  C1444  H1444c  .  .  .  108.0  ?
  H1444b  C1444  H1444c  .  .  .  98.8  ?
  C144  C145  C146  .  .  .  122.3(8)  ?
  C144  C145  H145  .  .  .  117.5 ?
  C146  C145  H145  .  .  .  120.1 ?
  C141  C146  C145  .  .  .  120.2(9)  ?
  C141  C146  C14  .  .  .  118.6(8)  ?
  C145  C146  C14  .  .  .  121.2(7)  ?
  C132  C14  C146  .  .  .  113.3(8)  ?
  C132  C14  H14a  .  .  .  108.7 ?
  C132  C14  H14b  .  .  .  107.7 ?
  C146  C14  H14a  .  .  .  109.4 ?
  C146  C14  H14b  .  .  .  109.3 ?
  H14a  C14  H14b  .  .  .  108.3  ?
  U12  O151  C151  .  .  .  128.3(5)  ?
  O151  C151  C152  .  .  .  119.9(9)  ?
  O151  C151  C156  .  .  .  120.7(7)  ?
  C152  C151  C156  .  .  .  119.4(8)  ?
  C151  C152  C153  .  .  .  118.5(10)  ?
  C151  C152  C16  .  .  .  120.9(8)  ?
  C153  C152  C16  .  .  .  120.7(8)  ?
  C152  C153  C154  .  .  .  123.2(8)  ?
  C152  C153  H153  .  .  .  118.2  ?
  C154  C153  H153  .  .  .  118.5 ?
  C153  C154  C1541  .  .  .  120.8(9)  ?
  C153  C154  C155  .  .  .  117.5(8)  ?
  C1541  C154  C155  .  .  .  121.7(11)  ?
  C154  C1541  C1542  .  .  .  112.3(14)  ?
  C154  C1541  C1543  .  .  .  111.1(11)  ?
  C154  C1541  C1544  .  .  .  105.8(11)  ?
  C154  C1541  C1542'  .  .  .  114(2)  ?
  C154  C1541  C1543'  .  .  .  113.4(14)  ?
  C154  C1541  C1544'  .  .  .  106.4(18)  ?
  C1542  C1541  C1543  .  .  .  113.0(15)  ?
  C1542  C1541  C1544  .  .  .  108.4(13)  ?
  C1543  C1541  C1544  .  .  .  105.7(17)  ?
  C1542'  C1541  C1543'  .  .  .  117(2)  ?
  C1542'  C1541  C1544'  .  .  .  96(3)  ?
  C1543'  C1541  C1544'  .  .  .  108(3)  ?
  C1541  C1542  H1542a  .  .  .  112 ?
  C1541  C1542  H1542b  .  .  .  110.1  ?
  C1541  C1542  H1542c  .  .  .  115 ?
  H1542a  C1542  H1542b  .  .  .  103 ?
  H1542a  C1542  H1542c  .  .  .  109.3  ?
  H1542b  C1542  H1542c  .  .  .  108 ?
  C1541  C1543  H1543a  .  .  .  107 ?
  C1541  C1543  H1543b  .  .  .  113 ?
  C1541  C1543  H1543c  .  .  .  106 ?
  H1543a  C1543  H1543b  .  .  .  114 ?
  H1543a  C1543  H1543c  .  .  .  103 ?
  H1543b  C1543  H1543c  .  .  .  112 ?
  C1541  C1544  H1544a  .  .  .  109.2  ?
  C1541  C1544  H1544b  .  .  .  111 ?
  C1541  C1544  H1544c  .  .  .  109.7  ?
  H1544a  C1544  H1544b  .  .  .  108.6  ?
  H1544a  C1544  H1544c  .  .  .  107 ?
  H1544b  C1544  H1544c  .  .  .  111 ?
  H1542'c  C1544  H1544'a  .  .  .  137.1  ?
  H1542'c  C1544  H1544'b  .  .  .  140 ?
  H1544'a  C1544  H1544'b  .  .  .  81 ?
  C1541  C1542'  H1542'a  .  .  .  108 ?
  C1541  C1542'  H1542'b  .  .  .  105 ?
  C1541  C1542'  H1542'c  .  .  .  121 ?
  H1542'a  C1542'  H1542'b  .  .  .  95 ?
  H1542'a  C1542'  H1542'c  .  .  .  114 ?
  H1542'b  C1542'  H1542'c  .  .  .  109 ?
  C1541  C1543'  H1543'a  .  .  .  111 ?
  C1541  C1543'  H1543'b  .  .  .  120 ?
  C1541  C1543'  H1543'c  .  .  .  109 ?
  H1543'a  C1543'  H1543'b  .  .  .  110 ?
  H1543'a  C1543'  H1543'c  .  .  .  98 ?
  H1543'b  C1543'  H1543'c  .  .  .  107 ?
  C1541  C1544'  H1544'a  .  .  .  118 ?
  C1541  C1544'  H1544'b  .  .  .  114 ?
  C1541  C1544'  H1544'c  .  .  .  111 ?
  H1544'a  C1544'  H1544'b  .  .  .  107 ?
  H1544'a  C1544'  H1544'c  .  .  .  103 ?
  H1544'b  C1544'  H1544'c  .  .  .  101 ?
  C154  C155  C156  .  .  .  121.5(11)  ?
  C154  C155  H155  .  .  .  120.3 ?
  C156  C155  H155  .  .  .  118.1 ?
  C151  C156  C155  .  .  .  119.8(8)  ?
  C151  C156  C15  .  .  .  122.0(8)  ?
  C155  C156  C15  .  .  .  118.0(10)  ?
  C142  C15  C156  .  .  .  114.0(8)  ?
  C142  C15  H15a  .  .  .  109.4 ?
  C142  C15  H15b  .  .  .  108.3 ?
  C156  C15  H15a  .  .  .  109.2 ?
  C156  C15  H15b  .  .  .  107.5 ?
  H15a  C15  H15b  .  .  .  108.2  ?
  U12  O161  C161  .  .  .  130.3(6)  ?
  O161  C161  C162  .  .  .  119.5(7)  ?
  O161  C161  C166  .  .  .  120.6(7)  ?
  C162  C161  C166  .  .  .  119.9(7)  ?
  C161  C162  C163  .  .  .  119.7(7)  ?
  C161  C162  C17  .  .  .  120.8(7)  ?
  C163  C162  C17  .  .  .  119.3(7)  ?
  C162  C163  C164  .  .  .  121.9(7)  ?
  C162  C163  H163  .  .  .  119.5 ?
  C164  C163  H163  .  .  .  118.6 ?
  C163  C164  C1641  .  .  .  118.8(7)  ?
  C163  C164  C165  .  .  .  116.5(7)  ?
  C1641  C164  C165  .  .  .  124.7(7)  ?
  C164  C1641  C1642  .  .  .  110.9(6)  ?
  C164  C1641  C1643  .  .  .  112.4(7)  ?
  C164  C1641  C1644  .  .  .  108.5(9)  ?
  C1642  C1641  C1643  .  .  .  108.1(9)  ?
  C1642  C1641  C1644  .  .  .  109.4(8)  ?
  C1643  C1641  C1644  .  .  .  107.6(7)  ?
  C1641  C1642  H1642a  .  .  .  110.1 ?
  C1641  C1642  H1642b  .  .  .  110.9  ?
  C1641  C1642  H1642c  .  .  .  110.1 ?
  H1642a  C1642  H1642b  .  .  .  108.3  ?
  H1642a  C1642  H1642c  .  .  .  108.3  ?
  H1642b  C1642  H1642c  .  .  .  109.1 ?
  C1641  C1643  H1643a  .  .  .  110.8 ?
  C1641  C1643  H1643b  .  .  .  110.4 ?
  C1641  C1643  H1643c  .  .  .  111.0  ?
  H1643a  C1643  H1643b  .  .  .  107.5  ?
  H1643a  C1643  H1643c  .  .  .  108.4 ?
  H1643b  C1643  H1643c  .  .  .  108.6 ?
  C1641  C1644  H1644a  .  .  .  111.1  ?
  C1641  C1644  H1644b  .  .  .  109.7 ?
  C1641  C1644  H1644c  .  .  .  111.3 ?
  H1644a  C1644  H1644b  .  .  .  107.9 ?
  H1644a  C1644  H1644c  .  .  .  108.9  ?
  H1644b  C1644  H1644c  .  .  .  107.8  ?
  C164  C165  C166  .  .  .  124.2(7)  ?
  C164  C165  H165  .  .  .  119.0 ?
  C166  C165  H165  .  .  .  116.7 ?
  C161  C166  C165  .  .  .  117.7(7)  ?
  C161  C166  C16  .  .  .  121.7(7)  ?
  C165  C166  C16  .  .  .  120.2(7)  ?
  C152  C16  C166  .  .  .  115.0(9)  ?
  C152  C16  H16a  .  .  .  107.3 ?
  C152  C16  H16b  .  .  .  108.1 ?
  C166  C16  H16a  .  .  .  108.3 ?
  C166  C16  H16b  .  .  .  110.0 ?
  H16a  C16  H16b  .  .  .  107.9  ?
  U11  O171  C171  .  .  .  129.7(5)  ?
  U11  O171  H171  .  .  .  90.9 ?
  C171  O171  H171  .  .  .  123.1 ?
  O171  C171  C172  .  .  .  119.3(8)  ?
  O171  C171  C176  .  .  .  120.0(9)  ?
  C172  C171  C176  .  .  .  120.7(8)  ?
  C171  C172  C173  .  .  .  120.0(8)  ?
  C171  C172  C18  .  .  .  121.3(7)  ?
  C173  C172  C18  .  .  .  118.7(9)  ?
  C172  C173  C174  .  .  .  122.6(9)  ?
  C172  C173  H173  .  .  .  118.2 ?
  C174  C173  H173  .  .  .  119.2 ?
  C173  C174  C1741  .  .  .  120.8(9)  ?
  C173  C174  C175  .  .  .  115.7(8)  ?
  C1741  C174  C175  .  .  .  123.4(8)  ?
  C174  C1741  C1742  .  .  .  107.0(8)  ?
  C174  C1741  C1743  .  .  .  111.2(8)  ?
  C174  C1741  C1744  .  .  .  113.3(11)  ?
  C1742  C1741  C1743  .  .  .  106.4(12)  ?
  C1742  C1741  C1744  .  .  .  107.1(9)  ?
  C1743  C1741  C1744  .  .  .  111.5(12)  ?
  C1741  C1742  H1742a  .  .  .  109.9  ?
  C1741  C1742  H1742b  .  .  .  112.6  ?
  C1741  C1742  H1742c  .  .  .  111.3  ?
  H1742a  C1742  H1742b  .  .  .  108.0  ?
  H1742a  C1742  H1742c  .  .  .  106.0  ?
  H1742b  C1742  H1742c  .  .  .  108.7  ?
  C1741  C1743  H1743a  .  .  .  109.9  ?
  C1741  C1743  H1743b  .  .  .  110.4  ?
  C1741  C1743  H1743c  .  .  .  111.5  ?
  H1743a  C1743  H1743b  .  .  .  106 ?
  H1743a  C1743  H1743c  .  .  .  109.8  ?
  H1743b  C1743  H1743c  .  .  .  109.1  ?
  C1741  C1744  H1744a  .  .  .  112.3  ?
  C1741  C1744  H1744b  .  .  .  113.6  ?
  C1741  C1744  H1744c  .  .  .  108.7  ?
  H1744a  C1744  H1744b  .  .  .  111.9  ?
  H1744a  C1744  H1744c  .  .  .  103.6  ?
  H1744b  C1744  H1744c  .  .  .  106 ?
  C174  C175  C176  .  .  .  123.5(8)  ?
  C174  C175  H175  .  .  .  118.2 ?
  C176  C175  H175  .  .  .  118.4 ?
  C171  C176  C175  .  .  .  117.5(9)  ?
  C171  C176  C17  .  .  .  121.4(7)  ?
  C175  C176  C17  .  .  .  121.0(7)  ?
  C162  C17  C176  .  .  .  111.1(6)  ?
  C162  C17  H17a  .  .  .  109.5 ?
  C162  C17  H17b  .  .  .  108.3 ?
  C176  C17  H17a  .  .  .  110.5 ?
  C176  C17  H17b  .  .  .  110.2 ?
  H17a  C17  H17b  .  .  .  107.1 ?
  U11  O181  C181  .  .  .  131.1(5)  ?
  O181  C181  C182  .  .  .  122.5(6)  ?
  O181  C181  C186  .  .  .  119.5(8)  ?
  C182  C181  C186  .  .  .  118.0(9)  ?
  C11  C182  C181  .  .  .  121.3(9)  ?
  C11  C182  C183  .  .  .  118.7(8)  ?
  C181  C182  C183  .  .  .  119.8(6)  ?
  C182  C183  C184  .  .  .  123.1(8)  ?
  C182  C183  H183  .  .  .  119.5 ?
  C184  C183  H183  .  .  .  117.3  ?
  C183  C184  C1841  .  .  .  121.3(8)  ?
  C183  C184  C185  .  .  .  116.3(9)  ?
  C1841  C184  C185  .  .  .  122.4(7)  ?
  C184  C1841  C1842  .  .  .  108.7(9)  ?
  C184  C1841  C1843  .  .  .  110.5(9)  ?
  C184  C1841  C1844  .  .  .  112.3(9)  ?
  C1842  C1841  C1843  .  .  .  110.0(10)  ?
  C1842  C1841  C1844  .  .  .  108.4(9)  ?
  C1843  C1841  C1844  .  .  .  106.9(9)  ?
  C1841  C1842  H1842a  .  .  .  112.2  ?
  C1841  C1842  H1842b  .  .  .  110.7  ?
  C1841  C1842  H1842c  .  .  .  109.8  ?
  H1842a  C1842  H1842b  .  .  .  109.1  ?
  H1842a  C1842  H1842c  .  .  .  108.0  ?
  H1842b  C1842  H1842c  .  .  .  106.9  ?
  C1841  C1843  H1843a  .  .  .  108.0  ?
  C1841  C1843  H1843b  .  .  .  108.6  ?
  C1841  C1843  H1843c  .  .  .  108.8  ?
  H1843a  C1843  H1843b  .  .  .  109.0  ?
  H1843a  C1843  H1843c  .  .  .  111.1  ?
  H1843b  C1843  H1843c  .  .  .  111.2  ?
  C1841  C1844  H1844a  .  .  .  112.0  ?
  C1841  C1844  H1844b  .  .  .  108.0  ?
  C1841  C1844  H1844c  .  .  .  115.1  ?
  H1844a  C1844  H1844b  .  .  .  103.6  ?
  H1844a  C1844  H1844c  .  .  .  110.9  ?
  H1844b  C1844  H1844c  .  .  .  106.3  ?
  C184  C185  C186  .  .  .  122.7(7)  ?
  C184  C185  H185  .  .  .  118.9  ?
  C186  C185  H185  .  .  .  118.4 ?
  C181  C186  C185  .  .  .  119.8(8)  ?
  C181  C186  C18  .  .  .  118.5(9)  ?
  C185  C186  C18  .  .  .  121.7(6)  ?
  C172  C18  C186  .  .  .  114.0(6)  ?
  C172  C18  H18a  .  .  .  108.6 ?
  C172  C18  H18b  .  .  .  108.2 ?
  C186  C18  H18a  .  .  .  108.7 ?
  C186  C18  H18b  .  .  .  109.4 ?
  H18a  C18  H18b  .  .  .  107.8 ?
  U21  O211  C211  .  .  .  137.2(5)  ?
  O211  C211  C212  .  .  .  119.9(7)  ?
  O211  C211  C216  .  .  .  120.0(7)  ?
  C212  C211  C216  .  .  .  120.0(8)  ?
  C211  C212  C213  .  .  .  118.8(8)  ?
  C211  C212  C22  .  .  .  119.6(8)  ?
  C213  C212  C22  .  .  .  121.5(7)  ?
  C212  C213  C214  .  .  .  123.0(8)  ?
  C212  C213  H213  .  .  .  118.4 ?
  C214  C213  H213  .  .  .  118.6 ?
  C213  C214  C2141  .  .  .  121.5(8)  ?
  C213  C214  C215  .  .  .  116.4(8)  ?
  C2141  C214  C215  .  .  .  122.1(8)  ?
  C214  C2141  C2142  .  .  .  108.2(10)  ?
  C214  C2141  C2143  .  .  .  110.4(7)  ?
  C214  C2141  C2144  .  .  .  113.6(8)  ?
  C2142  C2141  C2143  .  .  .  109.6(10)  ?
  C2142  C2141  C2144  .  .  .  104.9(8)  ?
  C2143  C2141  C2144  .  .  .  109.9(11)  ?
  C2141  C2142  H2142a  .  .  .  113.3  ?
  C2141  C2142  H2142b  .  .  .  113.0  ?
  C2141  C2142  H2142c  .  .  .  112.1 ?
  H2142a  C2142  H2142b  .  .  .  107.1  ?
  H2142a  C2142  H2142c  .  .  .  105.4  ?
  H2142b  C2142  H2142c  .  .  .  105.4  ?
  C2141  C2143  H2143a  .  .  .  112.1  ?
  C2141  C2143  H2143b  .  .  .  110.4  ?
  C2141  C2143  H2143c  .  .  .  110.5  ?
  H2143a  C2143  H2143b  .  .  .  109.1  ?
  H2143a  C2143  H2143c  .  .  .  108.3  ?
  H2143b  C2143  H2143c  .  .  .  106.2  ?
  C2141  C2144  H2144a  .  .  .  112.6  ?
  C2141  C2144  H2144b  .  .  .  109.3 ?
  C2141  C2144  H2144c  .  .  .  112.7  ?
  H2144a  C2144  H2144b  .  .  .  105.1  ?
  H2144a  C2144  H2144c  .  .  .  110.9 ?
  H2144b  C2144  H2144c  .  .  .  105.8  ?
  C214  C215  C216  .  .  .  123.4(8)  ?
  C214  C215  H215  .  .  .  117.9 ?
  C216  C215  H215  .  .  .  118.7 ?
  C211  C216  C215  .  .  .  118.4(7)  ?
  C211  C216  C21  .  .  .  120.9(8)  ?
  C215  C216  C21  .  .  .  120.5(8)  ?
  C216  C21  C282  .  .  .  109.6(7)  ?
  C216  C21  H21a  .  .  .  109.3 ?
  C216  C21  H21b  .  .  .  109.7 ?
  C282  C21  H21a  .  .  .  109.7 ?
  C282  C21  H21b  .  .  .  109.6 ?
  H21a  C21  H21b  .  .  .  108.8 ?
  U21  O221  C221  .  .  .  126.3(5)  ?
  O221  C221  C222  .  .  .  120.2(8)  ?
  O221  C221  C226  .  .  .  120.2(6)  ?
  C222  C221  C226  .  .  .  119.6(8)  ?
  C221  C222  C223  .  .  .  119.7(8)  ?
  C221  C222  C23  .  .  .  120.6(8)  ?
  C223  C222  C23  .  .  .  119.6(6)  ?
  C222  C223  C224  .  .  .  122.3(6)  ?
  C222  C223  H223  .  .  .  118.1 ?
  C224  C223  H223  .  .  .  119.6 ?
  C223  C224  C2241  .  .  .  122.7(7)  ?
  C223  C224  C225  .  .  .  116.1(8)  ?
  C2241  C224  C225  .  .  .  121.2(9)  ?
  C224  C2241  C2242  .  .  .  110.6(8)  ?
  C224  C2241  C2243  .  .  .  112.7(9)  ?
  C224  C2241  C2244  .  .  .  109.9(7)  ?
  C2242  C2241  C2243  .  .  .  105.8(7)  ?
  C2242  C2241  C2244  .  .  .  109.6(10)  ?
  C2243  C2241  C2244  .  .  .  108.2(9)  ?
  C2241  C2242  H2242a  .  .  .  110.1  ?
  C2241  C2242  H2242b  .  .  .  109.1 ?
  C2241  C2242  H2242c  .  .  .  111.6  ?
  H2242a  C2242  H2242b  .  .  .  106.5  ?
  H2242a  C2242  H2242c  .  .  .  110.0 ?
  H2242b  C2242  H2242c  .  .  .  109.5  ?
  C2241  C2243  H2243a  .  .  .  112.6  ?
  C2241  C2243  H2243b  .  .  .  111.3  ?
  C2241  C2243  H2243c  .  .  .  108.7 ?
  H2243a  C2243  H2243b  .  .  .  110.3 ?
  H2243a  C2243  H2243c  .  .  .  107.1  ?
  H2243b  C2243  H2243c  .  .  .  106.6  ?
  C2241  C2244  H2244a  .  .  .  111.2 ?
  C2241  C2244  H2244b  .  .  .  109.4  ?
  C2241  C2244  H2244c  .  .  .  114.0  ?
  H2244a  C2244  H2244b  .  .  .  104.2  ?
  H2244a  C2244  H2244c  .  .  .  109.2  ?
  H2244b  C2244  H2244c  .  .  .  108.4  ?
  C224  C225  C226  .  .  .  123.9(9)  ?
  C224  C225  H225  .  .  .  119.2 ?
  C226  C225  H225  .  .  .  116.9 ?
  C221  C226  C225  .  .  .  118.5(6)  ?
  C221  C226  C22  .  .  .  120.4(8)  ?
  C225  C226  C22  .  .  .  121.1(8)  ?
  C212  C22  C226  .  .  .  113.0(8)  ?
  C212  C22  H22a  .  .  .  109.1 ?
  C212  C22  H22b  .  .  .  107.7 ?
  C226  C22  H22a  .  .  .  109.8 ?
  C226  C22  H22b  .  .  .  108.8 ?
  H22a  C22  H22b  .  .  .  108.3 ?
  U22  O231  C231  .  .  .  127.0(5)  ?
  U22  O231  H231  .  .  .  96.7    ?
  C231  O231  H231  .  .  .  129.0 ?
  O231  C231  C232  .  .  .  117.7(7)  ?
  O231  C231  C236  .  .  .  120.4(7)  ?
  C232  C231  C236  .  .  .  121.9(6)  ?
  C231  C232  C233  .  .  .  117.5(7)  ?
  C231  C232  C24  .  .  .  122.8(6)  ?
  C233  C232  C24  .  .  .  119.7(8)  ?
  C232  C233  C234  .  .  .  123.1(8)  ?
  C232  C233  H233  .  .  .  119.0 ?
  C234  C233  H233  .  .  .  117.9 ?
  C233  C234  C2341  .  .  .  122.2(8)  ?
  C233  C234  C235  .  .  .  117.0(6)  ?
  C2341  C234  C235  .  .  .  120.8(7)  ?
  C234  C2341  C2342  .  .  .  108.3(6)  ?
  C234  C2341  C2343  .  .  .  112.8(7)  ?
  C234  C2341  C2344  .  .  .  111.1(8)  ?
  C2342  C2341  C2343  .  .  .  108.7(8)  ?
  C2342  C2341  C2344  .  .  .  107.1(7)  ?
  C2343  C2341  C2344  .  .  .  108.7(7)  ?
  C2341  C2342  H2342a  .  .  .  109.9 ?
  C2341  C2342  H2342b  .  .  .  111.1 ?
  C2341  C2342  H2342c  .  .  .  109.2 ?
  H2342a  C2342  H2342b  .  .  .  110.4  ?
  H2342a  C2342  H2342c  .  .  .  107.9 ?
  H2342b  C2342  H2342c  .  .  .  108.3 ?
  C2341  C2343  H2343a  .  .  .  110.7 ?
  C2341  C2343  H2343b  .  .  .  108.9 ?
  C2341  C2343  H2343c  .  .  .  110.1 ?
  H2343a  C2343  H2343b  .  .  .  109.2 ?
  H2343a  C2343  H2343c  .  .  .  110.5  ?
  H2343b  C2343  H2343c  .  .  .  107.3 ?
  C2341  C2344  H2344a  .  .  .  110.3  ?
  C2341  C2344  H2344b  .  .  .  112.0 ?
  C2341  C2344  H2344c  .  .  .  108.7 ?
  H2344a  C2344  H2344b  .  .  .  111.0  ?
  H2344a  C2344  H2344c  .  .  .  106.8 ?
  H2344b  C2344  H2344c  .  .  .  108.0  ?
  C234  C235  C236  .  .  .  121.5(8)  ?
  C234  C235  H235  .  .  .  118.9 ?
  C236  C235  H235  .  .  .  119.6 ?
  C231  C236  C235  .  .  .  118.9(8)  ?
  C231  C236  C23  .  .  .  122.2(6)  ?
  C235  C236  C23  .  .  .  118.9(7)  ?
  C222  C23  C236  .  .  .  110.9(6)  ?
  C222  C23  H23a  .  .  .  109.0 ?
  C222  C23  H23b  .  .  .  109.3 ?
  C236  C23  H23a  .  .  .  109.3 ?
  C236  C23  H23b  .  .  .  110.5 ?
  H23a  C23  H23b  .  .  .  107.8 ?
  U22  O241  C241  .  .  .  136.3(4)  ?
  O241  C241  C242  .  .  .  121.1(6)  ?
  O241  C241  C246  .  .  .  119.4(8)  ?
  C242  C241  C246  .  .  .  119.5(8)  ?
  C241  C242  C243  .  .  .  119.9(7)  ?
  C241  C242  C25  .  .  .  120.3(7)  ?
  C243  C242  C25  .  .  .  119.8(8)  ?
  C242  C243  C244  .  .  .  121.8(9)  ?
  C242  C243  H243  .  .  .  118.8 ?
  C244  C243  H243  .  .  .  119.3 ?
  C243  C244  C2441  .  .  .  123.6(9)  ?
  C243  C244  C245  .  .  .  117.3(8)  ?
  C2441  C244  C245  .  .  .  119.1(7)  ?
  C244  C2441  C2442  .  .  .  109.4(7)  ?
  C244  C2441  C2443  .  .  .  113.4(7)  ?
  C244  C2441  C2444  .  .  .  107.6(8)  ?
  C2442  C2441  C2443  .  .  .  109.6(9)  ?
  C2442  C2441  C2444  .  .  .  108.0(7)  ?
  C2443  C2441  C2444  .  .  .  108.6(7)  ?
  C2441  C2442  H2442a  .  .  .  108.7 ?
  C2441  C2442  H2442b  .  .  .  108.7 ?
  C2441  C2442  H2442c  .  .  .  109.7 ?
  H2442a  C2442  H2442b  .  .  .  108.9 ?
  H2442a  C2442  H2442c  .  .  .  110.6  ?
  H2442b  C2442  H2442c  .  .  .  110.1 ?
  C2441  C2443  H2443a  .  .  .  111.6 ?
  C2441  C2443  H2443b  .  .  .  109.4 ?
  C2441  C2443  H2443c  .  .  .  110.4  ?
  H2443a  C2443  H2443b  .  .  .  108.3  ?
  H2443a  C2443  H2443c  .  .  .  110.0 ?
  H2443b  C2443  H2443c  .  .  .  106.9 ?
  C2441  C2444  H2444a  .  .  .  112.5  ?
  C2441  C2444  H2444b  .  .  .  109.2 ?
  C2441  C2444  H2444c  .  .  .  110.2 ?
  H2444a  C2444  H2444b  .  .  .  109.1 ?
  H2444a  C2444  H2444c  .  .  .  110.0 ?
  H2444b  C2444  H2444c  .  .  .  105.6  ?
  C244  C245  C246  .  .  .  121.8(7)  ?
  C244  C245  H245  .  .  .  118.7 ?
  C246  C245  H245  .  .  .  119.5 ?
  C241  C246  C245  .  .  .  119.6(9)  ?
  C241  C246  C24  .  .  .  119.8(8)  ?
  C245  C246  C24  .  .  .  120.5(7)  ?
  C232  C24  C246  .  .  .  111.4(6)  ?
  C232  C24  H24a  .  .  .  109.7 ?
  C232  C24  H24b  .  .  .  109.1 ?
  C246  C24  H24a  .  .  .  109.4 ?
  C246  C24  H24b  .  .  .  109.5 ?
  H24a  C24  H24b  .  .  .  107.7 ?
  U22  O251  C251  .  .  .  128.4(4)  ?
  O251  C251  C252  .  .  .  120.9(8)  ?
  O251  C251  C256  .  .  .  119.9(6)  ?
  C252  C251  C256  .  .  .  119.1(9)  ?
  C251  C252  C253  .  .  .  119.4(8)  ?
  C251  C252  C26  .  .  .  119.3(9)  ?
  C253  C252  C26  .  .  .  121.2(6)  ?
  C252  C253  C254  .  .  .  122.8(7)  ?
  C252  C253  H253  .  .  .  119.8 ?
  C254  C253  H253  .  .  .  117.4  ?
  C253  C254  C2541  .  .  .  121.2(7)  ?
  C253  C254  C255  .  .  .  116.8(9)  ?
  C2541  C254  C255  .  .  .  121.9(8)  ?
  C254  C2541  C2542  .  .  .  109.7(9)  ?
  C254  C2541  C2543  .  .  .  108.9(9)  ?
  C254  C2541  C2544  .  .  .  112.9(8)  ?
  C2542  C2541  C2543  .  .  .  107.9(8)  ?
  C2542  C2541  C2544  .  .  .  109.5(9)  ?
  C2543  C2541  C2544  .  .  .  107.8(10)  ?
  C2541  C2542  H2542a  .  .  .  111.4  ?
  C2541  C2542  H2542b  .  .  .  107.0 ?
  C2541  C2542  H2542c  .  .  .  111.2  ?
  H2542a  C2542  H2542b  .  .  .  106.8  ?
  H2542a  C2542  H2542c  .  .  .  113.5  ?
  H2542b  C2542  H2542c  .  .  .  106.6  ?
  C2541  C2543  H2543a  .  .  .  109.6  ?
  C2541  C2543  H2543b  .  .  .  109.3  ?
  C2541  C2543  H2543c  .  .  .  110.0  ?
  H2543a  C2543  H2543b  .  .  .  108.5  ?
  H2543a  C2543  H2543c  .  .  .  110.0  ?
  H2543b  C2543  H2543c  .  .  .  109.5  ?
  C2541  C2544  H2544a  .  .  .  110.9  ?
  C2541  C2544  H2544b  .  .  .  111.7  ?
  C2541  C2544  H2544c  .  .  .  109.6  ?
  H2544a  C2544  H2544b  .  .  .  110.0  ?
  H2544a  C2544  H2544c  .  .  .  106.6  ?
  H2544b  C2544  H2544c  .  .  .  107.9  ?
  C254  C255  C256  .  .  .  122.7(8)  ?
  C254  C255  H255  .  .  .  119.7  ?
  C256  C255  H255  .  .  .  117.6 ?
  C251  C256  C255  .  .  .  119.2(6)  ?
  C251  C256  C25  .  .  .  120.7(8)  ?
  C255  C256  C25  .  .  .  119.7(7)  ?
  C242  C25  C256  .  .  .  107.4(5)  ?
  C242  C25  H25a  .  .  .  110.5 ?
  C242  C25  H25b  .  .  .  110.7 ?
  C256  C25  H25a  .  .  .  109.5 ?
  C256  C25  H25b  .  .  .  109.9 ?
  H25a  C25  H25b  .  .  .  108.9 ?
  U22  O261  C261  .  .  .  130.7(5)  ?
  U22  O261  H271  .  .  .  102.7 ?
  C261  O261  H271  .  .  .  126.1 ?
  O261  C261  C262  .  .  .  120.7(9)  ?
  O261  C261  C266  .  .  .  120.1(7)  ?
  C262  C261  C266  .  .  .  119.0(8)  ?
  C261  C262  C263  .  .  .  118.9(9)  ?
  C261  C262  C27  .  .  .  120.7(7)  ?
  C263  C262  C27  .  .  .  120.4(7)  ?
  C262  C263  C264  .  .  .  123.3(8)  ?
  C262  C263  H263  .  .  .  117.3  ?
  C264  C263  H263  .  .  .  119.3 ?
  C263  C264  C2641  .  .  .  121.5(8)  ?
  C263  C264  C265  .  .  .  117.2(8)  ?
  C2641  C264  C265  .  .  .  121.2(9)  ?
  C264  C2641  C2642  .  .  .  109.4(7)  ?
  C264  C2641  C2643  .  .  .  108.4(9)  ?
  C264  C2641  C2644  .  .  .  113.3(9)  ?
  C2642  C2641  C2643  .  .  .  107.6(9)  ?
  C2642  C2641  C2644  .  .  .  106.6(11)  ?
  C2643  C2641  C2644  .  .  .  111.5(9)  ?
  C2641  C2642  H2642a  .  .  .  110.0 ?
  C2641  C2642  H2642b  .  .  .  109.5  ?
  C2641  C2642  H2642c  .  .  .  109.5  ?
  H2642a  C2642  H2642b  .  .  .  109.1  ?
  H2642a  C2642  H2642c  .  .  .  109.6  ?
  H2642b  C2642  H2642c  .  .  .  109.0  ?
  C2641  C2643  H2643a  .  .  .  108.5  ?
  C2641  C2643  H2643b  .  .  .  111.4  ?
  C2641  C2643  H2643c  .  .  .  109.9 ?
  H2643a  C2643  H2643b  .  .  .  109.4  ?
  H2643a  C2643  H2643c  .  .  .  105.8  ?
  H2643b  C2643  H2643c  .  .  .  111.6  ?
  C2641  C2644  H2644a  .  .  .  112.6  ?
  C2641  C2644  H2644b  .  .  .  112.5  ?
  C2641  C2644  H2644c  .  .  .  112.2  ?
  H2644a  C2644  H2644b  .  .  .  105.8  ?
  H2644a  C2644  H2644c  .  .  .  106.4  ?
  H2644b  C2644  H2644c  .  .  .  106.9  ?
  C264  C265  C266  .  .  .  121.9(9)  ?
  C264  C265  H265  .  .  .  119.6 ?
  C266  C265  H265  .  .  .  118.5 ?
  C261  C266  C265  .  .  .  119.5(8)  ?
  C261  C266  C26  .  .  .  121.6(7)  ?
  C265  C266  C26  .  .  .  118.8(9)  ?
  C252  C26  C266  .  .  .  114.8(6)  ?
  C252  C26  H26a  .  .  .  108.5 ?
  C252  C26  H26b  .  .  .  108.9 ?
  C266  C26  H26a  .  .  .  107.6 ?
  C266  C26  H26b  .  .  .  108.5 ?
  H26a  C26  H26b  .  .  .  108.4 ?
  U21  O271  C271  .  .  .  131.0(6)  ?
  U21  O271  H271  .  .  .  101.8 ?
  C271  O271  H271  .  .  .  126.5 ?
  O271  C271  C272  .  .  .  118.4(6)  ?
  O271  C271  C276  .  .  .  121.5(6)  ?
  C272  C271  C276  .  .  .  120.1(7)  ?
  C271  C272  C273  .  .  .  117.8(7)  ?
  C271  C272  C28  .  .  .  121.1(7)  ?
  C273  C272  C28  .  .  .  121.1(6)  ?
  C272  C273  C274  .  .  .  123.4(7)  ?
  C272  C273  H273  .  .  .  117.0 ?
  C274  C273  H273  .  .  .  119.6 ?
  C273  C274  C2741  .  .  .  124.0(7)  ?
  C273  C274  C275  .  .  .  116.9(7)  ?
  C2741  C274  C275  .  .  .  119.0(7)  ?
  C274  C2741  C2742  .  .  .  109.0(6)  ?
  C274  C2741  C2743  .  .  .  111.8(7)  ?
  C274  C2741  C2744  .  .  .  110.3(9)  ?
  C2742  C2741  C2743  .  .  .  107.5(9)  ?
  C2742  C2741  C2744  .  .  .  109.0(8)  ?
  C2743  C2741  C2744  .  .  .  109.2(7)  ?
  C2741  C2742  H2742a  .  .  .  109.6 ?
  C2741  C2742  H2742b  .  .  .  111.9 ?
  C2741  C2742  H2742c  .  .  .  111.3  ?
  H2742a  C2742  H2742b  .  .  .  107.6  ?
  H2742a  C2742  H2742c  .  .  .  107.3 ?
  H2742b  C2742  H2742c  .  .  .  109.1 ?
  C2741  C2743  H2743a  .  .  .  110.5 ?
  C2741  C2743  H2743b  .  .  .  109.5  ?
  C2741  C2743  H2743c  .  .  .  110.4 ?
  H2743a  C2743  H2743b  .  .  .  108.8 ?
  H2743a  C2743  H2743c  .  .  .  110.4  ?
  H2743b  C2743  H2743c  .  .  .  107.1 ?
  C2741  C2744  H2744a  .  .  .  110.3  ?
  C2741  C2744  H2744b  .  .  .  110.6 ?
  C2741  C2744  H2744c  .  .  .  112.6 ?
  H2744a  C2744  H2744b  .  .  .  106.8 ?
  H2744a  C2744  H2744c  .  .  .  108.3 ?
  H2744b  C2744  H2744c  .  .  .  108.0  ?
  C274  C275  C276  .  .  .  121.7(7)  ?
  C274  C275  H275  .  .  .  119.8 ?
  C276  C275  H275  .  .  .  118.6 ?
  C271  C276  C275  .  .  .  120.0(7)  ?
  C271  C276  C27  .  .  .  121.5(7)  ?
  C275  C276  C27  .  .  .  118.3(7)  ?
  C262  C27  C276  .  .  .  108.2(6)  ?
  C262  C27  H27a  .  .  .  110.0 ?
  C262  C27  H27b  .  .  .  110.1 ?
  C276  C27  H27a  .  .  .  109.6 ?
  C276  C27  H27b  .  .  .  109.7 ?
  H27a  C27  H27b  .  .  .  109.3 ?
  U21  O281  C281  .  .  .  127.7(5)  ?
  O281  C281  C282  .  .  .  121.5(7)  ?
  O281  C281  C286  .  .  .  119.9(9)  ?
  C282  C281  C286  .  .  .  118.6(7)  ?
  C21  C282  C281  .  .  .  122.1(7)  ?
  C21  C282  C283  .  .  .  118.1(9)  ?
  C281  C282  C283  .  .  .  119.7(8)  ?
  C282  C283  C284  .  .  .  122.8(10)  ?
  C282  C283  H283  .  .  .  118.8 ?
  C284  C283  H283  .  .  .  118.4 ?
  C283  C284  C2841  .  .  .  120.4(9)  ?
  C283  C284  C285  .  .  .  116.5(7)  ?
  C2841  C284  C285  .  .  .  123.0(8)  ?
  C284  C2841  C2842  .  .  .  109.8(8)  ?
  C284  C2841  C2843  .  .  .  109.6(7)  ?
  C284  C2841  C2844  .  .  .  113.0(9)  ?
  C2842  C2841  C2843  .  .  .  110.6(11)  ?
  C2842  C2841  C2844  .  .  .  105.7(9)  ?
  C2843  C2841  C2844  .  .  .  108.0(9)  ?
  C2841  C2842  H2842a  .  .  .  116.1  ?
  C2841  C2842  H2842b  .  .  .  111.8  ?
  C2841  C2842  H2842c  .  .  .  113.8  ?
  H2842a  C2842  H2842b  .  .  .  104.4  ?
  H2842a  C2842  H2842c  .  .  .  107.4  ?
  H2842b  C2842  H2842c  .  .  .  102.0  ?
  C2841  C2843  H2843a  .  .  .  111.4  ?
  C2841  C2843  H2843b  .  .  .  112.8  ?
  C2841  C2843  H2843c  .  .  .  109.5  ?
  H2843a  C2843  H2843b  .  .  .  110.1  ?
  H2843a  C2843  H2843c  .  .  .  105.9  ?
  H2843b  C2843  H2843c  .  .  .  106.9  ?
  C2841  C2844  H2844a  .  .  .  111.9  ?
  C2841  C2844  H2844b  .  .  .  108.3  ?
  C2841  C2844  H2844c  .  .  .  111.6  ?
  H2844a  C2844  H2844b  .  .  .  107.3  ?
  H2844a  C2844  H2844c  .  .  .  111.2  ?
  H2844b  C2844  H2844c  .  .  .  106.2  ?
  C284  C285  C286  .  .  .  123.5(8)  ?
  C284  C285  H285  .  .  .  119.4 ?
  C286  C285  H285  .  .  .  117.1  ?
  C281  C286  C285  .  .  .  118.7(9)  ?
  C281  C286  C28  .  .  .  120.0(7)  ?
  C285  C286  C28  .  .  .  121.2(7)  ?
  C272  C28  C286  .  .  .  115.7(8)  ?
  C272  C28  H28a  .  .  .  108.6 ?
  C272  C28  H28b  .  .  .  108.0 ?
  C286  C28  H28a  .  .  .  108.5 ?
  C286  C28  H28b  .  .  .  108.1 ?
  H28a  C28  H28b  .  .  .  107.6 ?
  C1011  N101  C1012  .  .  .  109.7(9)  ?
  C1011  N101  C101  .  .  .  111.7(10)  ?
  C1011  N101  H101  .  .  .  106.8 ?
  C1012  N101  C101  .  .  .  112.0(7)  ?
  C1012  N101  H101  .  .  .  114.9  ?
  C101  N101  H101  .  .  .  101.5 ?
  N101  C1011  H1011b  .  .  .  110.6  ?
  N101  C1011  H1011c  .  .  .  106.6  ?
  N101  C1011  H1011a  .  .  .  106.8  ?
  H1011b  C1011  H1011c  .  .  .  113.2  ?
  H1011b  C1011  H1011a  .  .  .  112.7  ?
  H1011c  C1011  H1011a  .  .  .  106.4  ?
  N101  C1012  H1012a  .  .  .  109.9  ?
  N101  C1012  H1012b  .  .  .  110.0 ?
  N101  C1012  H1012c  .  .  .  111.2  ?
  H1012a  C1012  H1012b  .  .  .  106.9  ?
  H1012a  C1012  H1012c  .  .  .  109.3  ?
  H1012b  C1012  H1012c  .  .  .  109.4  ?
  N101  C101  C102  .  .  .  109.9(9)  ?
  N101  C101  H101a  .  .  .  111.0  ?
  N101  C101  H101b  .  .  .  110.6 ?
  C102  C101  H101a  .  .  .  109.4 ?
  C102  C101  H101b  .  .  .  107.6  ?
  H101a  C101  H101b  .  .  .  108.2  ?
  C101  C102  N102  .  .  .  109.5(8)  ?
  C101  C102  H102a  .  .  .  108.4  ?
  C101  C102  H102b  .  .  .  109.2  ?
  N102  C102  H102a  .  .  .  110.8  ?
  N102  C102  H102b  .  .  .  110.3  ?
  H102a  C102  H102b  .  .  .  108.5 ?
  C102  N102  C1021  .  .  .  110.9(10)  ?
  C102  N102  C1022  .  .  .  109.5(9)  ?
  C1021  N102  C1022  .  .  .  110.9(11)  ?
  N102  C1021  H1021a  .  .  .  111.8  ?
  N102  C1021  H1021b  .  .  .  110.0  ?
  N102  C1021  H1021c  .  .  .  109.2  ?
  H1021a  C1021  H1021b  .  .  .  109.9  ?
  H1021a  C1021  H1021c  .  .  .  108.3  ?
  H1021b  C1021  H1021c  .  .  .  107.6  ?
  N102  C1022  H1022a  .  .  .  109.9  ?
  N102  C1022  H1022b  .  .  .  112.1  ?
  N102  C1022  H1022c  .  .  .  110.9  ?
  H1022a  C1022  H1022b  .  .  .  107.5  ?
  H1022a  C1022  H1022c  .  .  .  105.6  ?
  H1022b  C1022  H1022c  .  .  .  110.6  ?
  C2011  N201  C2012  .  .  .  109.9(7)  ?
  C2011  N201  C201  .  .  .  111.7(6)  ?
  C2011  N201  H201  .  .  .  106.1 ?
  C2012  N201  C201  .  .  .  109.4(6)  ?
  C2012  N201  H201  .  .  .  109.6 ?
  C201  N201  H201  .  .  .  110.1 ?
  N201  C2011  H2011a  .  .  .  109.8 ?
  N201  C2011  H2011b  .  .  .  110.7 ?
  N201  C2011  H2011c  .  .  .  109.5 ?
  H2011a  C2011  H2011b  .  .  .  109.4 ?
  H2011a  C2011  H2011c  .  .  .  108.1 ?
  H2011b  C2011  H2011c  .  .  .  109.3  ?
  N201  C2012  H2012a  .  .  .  110.1 ?
  N201  C2012  H2012b  .  .  .  109.5 ?
  N201  C2012  H2012c  .  .  .  109.5 ?
  H2012a  C2012  H2012b  .  .  .  109.8 ?
  H2012a  C2012  H2012c  .  .  .  109.4 ?
  H2012b  C2012  H2012c  .  .  .  108.5  ?
  N201  C201  C202  .  .  .  113.6(6)  ?
  N201  C201  H201a  .  .  .  108.4 ?
  N201  C201  H201b  .  .  .  109.6 ?
  C202  C201  H201a  .  .  .  107.7 ?
  C202  C201  H201b  .  .  .  109.1 ?
  H201a  C201  H201b  .  .  .  108.3 ?
  C201  C202  N202  .  .  .  105.6(7)  ?
  C201  C202  H202a  .  .  .  108.7  ?
  C201  C202  H202b  .  .  .  110.0 ?
  N202  C202  H202a  .  .  .  110.4 ?
  N202  C202  H202b  .  .  .  111.9  ?
  H202a  C202  H202b  .  .  .  110.2 ?
  C202  N202  C2021  .  .  .  109.9(13)  ?
  C202  N202  C2022  .  .  .  112.4(11)  ?
  C2021  N202  C2022  .  .  .  106.6(16)  ?
  N202  C2021  H2021a  .  .  .  109.5  ?
  N202  C2021  H2021b  .  .  .  112 ?
  N202  C2021  H2021c  .  .  .  117.9  ?
  H2021a  C2021  H2021b  .  .  .  100.5  ?
  H2021a  C2021  H2021c  .  .  .  106 ?
  H2021b  C2021  H2021c  .  .  .  109.7  ?
  N202  C2022  H2022a  .  .  .  115.1  ?
  N202  C2022  H2022b  .  .  .  115.5  ?
  N202  C2022  H2022c  .  .  .  111.1  ?
  H2022a  C2022  H2022b  .  .  .  108 ?
  H2022a  C2022  H2022c  .  .  .  102.9  ?
  H2022b  C2022  H2022c  .  .  .  103.3  ?
  C3011  N301  C3012  .  .  .  113.4(10)  ?
  C3011  N301  C301  .  .  .  105.8(10)  ?
  C3011  N301  H301  .  .  .  109.8  ?
  C3012  N301  C301  .  .  .  108.1(11)  ?
  C3012  N301  H301  .  .  .  110.8  ?
  C301  N301  H301  .  .  .  108.8 ?
  N301  C3011  H3011a  .  .  .  112.9  ?
  N301  C3011  H3011b  .  .  .  111.1  ?
  N301  C3011  H3011c  .  .  .  108.3  ?
  H3011a  C3011  H3011b  .  .  .  112.1  ?
  H3011a  C3011  H3011c  .  .  .  106.7  ?
  H3011b  C3011  H3011c  .  .  .  105.3  ?
  N301  C3012  H3012a  .  .  .  112.1  ?
  N301  C3012  H3012b  .  .  .  111.9  ?
  N301  C3012  H3012c  .  .  .  112.2  ?
  H3012a  C3012  H3012b  .  .  .  105.5  ?
  H3012a  C3012  H3012c  .  .  .  107.2  ?
  H3012b  C3012  H3012c  .  .  .  107.6  ?
  N301  C301  C302  .  .  .  113.2(11)  ?
  N301  C301  H301a  .  .  .  111.2  ?
  N301  C301  H301b  .  .  .  109.0  ?
  C302  C301  H301a  .  .  .  107.5  ?
  C302  C301  H301b  .  .  .  106.9  ?
  H301a  C301  H301b  .  .  .  108.8  ?
  C301  C302  N302  .  .  .  114.1(11)  ?
  C301  C302  H302a  .  .  .  110.9  ?
  C301  C302  H302b  .  .  .  109.0  ?
  N302  C302  H302a  .  .  .  108.7  ?
  N302  C302  H302b  .  .  .  108.0  ?
  H302a  C302  H302b  .  .  .  105.9  ?
  C302  N302  C3021  .  .  .  113.3(14)  ?
  C302  N302  C3022  .  .  .  105.4(13)  ?
  C3021  N302  C3022  .  .  .  111.1(13)  ?
  N302  C3021  H3021a  .  .  .  114.6  ?
  N302  C3021  H3021b  .  .  .  107.8  ?
  N302  C3021  H3021c  .  .  .  112.0  ?
  H3021a  C3021  H3021b  .  .  .  105.6  ?
  H3021a  C3021  H3021c  .  .  .  112.3  ?
  H3021b  C3021  H3021c  .  .  .  103.6  ?
  N302  C3022  H3022a  .  .  .  103.8  ?
  N302  C3022  H3022b  .  .  .  118 ?
  N302  C3022  H3022c  .  .  .  110.7  ?
  H3022a  C3022  H3022b  .  .  .  105.2  ?
  H3022a  C3022  H3022c  .  .  .  98 ?
  H3022b  C3022  H3022c  .  .  .  117 ?
  C4011  N401  C4012  .  .  .  111.4(10)  ?
  C4011  N401  C401  .  .  .  112.4(10)  ?
  C4011  N401  C401'  .  .  .  114.0(9)  ?
  C4011  N401  H401  .  .  .  97.9  ?
  C4012  N401  C401  .  .  .  97.2(9)  ?
  C4012  N401  C401'  .  .  .  122.1(9)  ?
  C4012  N401  H401  .  .  .  108.6 ?
  C401  N401  H401  .  .  .  129.3  ?
  C401'  N401  H401  .  .  .  98.9 ?
  N401  C4011  H4011a  .  .  .  109.0  ?
  N401  C4011  H4011b  .  .  .  108.4 ?
  N401  C4011  H4011c  .  .  .  114.6  ?
  H4011a  C4011  H4011b  .  .  .  102.9  ?
  H4011a  C4011  H4011c  .  .  .  111.6  ?
  H4011b  C4011  H4011c  .  .  .  109.6  ?
  N401  C4012  H4012a  .  .  .  107.3 ?
  N401  C4012  H4012b  .  .  .  107.1  ?
  N401  C4012  H4012c  .  .  .  107.4  ?
  H4012a  C4012  H4012b  .  .  .  111.9  ?
  H4012a  C4012  H4012c  .  .  .  111.8  ?
  H4012b  C4012  H4012c  .  .  .  111.1  ?
  N401  C401  C402  .  .  .  107.7(11)  ?
  N401  C401  H401a  .  .  .  110.4  ?
  N401  C401  H401b  .  .  .  111.4  ?
  C402  C401  H401a  .  .  .  108.1  ?
  C402  C401  H401b  .  .  .  110.1  ?
  H401a  C401  H401b  .  .  .  109.0  ?
  N401  C401'  C402'  .  .  .  112.1(15)  ?
  N401  C401'  H401'a  .  .  .  112.7  ?
  N401  C401'  H401'b  .  .  .  111.0  ?
  C402'  C401'  H401'a  .  .  .  107.7  ?
  C402'  C401'  H401'b  .  .  .  105.8  ?
  H401'a  C401'  H401'b  .  .  .  107.1  ?
  C401  C402  N402  .  .  .  106.3(12)  ?
  C401  C402  H402a  .  .  .  112.0  ?
  C401  C402  H402b  .  .  .  113.0  ?
  N402  C402  H402a  .  .  .  110.2  ?
  N402  C402  H402b  .  .  .  108.0  ?
  H402a  C402  H402b  .  .  .  107.3  ?
  C401'  C402'  N402'  .  .  .  111.6(17)  ?
  C401'  C402'  H402'a  .  .  .  112.7  ?
  C401'  C402'  H402'b  .  .  .  119 ?
  N402'  C402'  H402'a  .  .  .  109 ?
  N402'  C402'  H402'b  .  .  .  105.9  ?
  H402'a  C402'  H402'b  .  .  .  97.7  ?
  C402  N402  C4021  .  .  .  107.5(15)  ?
  C402  N402  C4022  .  .  .  113.4(15)  ?
  C4021  N402  C4022  .  .  .  109.8(19)  ?
  C402'  N402'  C4021'  .  .  .  112.6(15)  ?
  C402'  N402'  C4022'  .  .  .  119.3(16)  ?
  C4021'  N402'  C4022'  .  .  .  121(2)  ?
  N402  C4021  H4021a  .  .  .  114 ?
  N402  C4021  H4021b  .  .  .  106.2  ?
  N402  C4021  H4021c  .  .  .  109 ?
  H4021a  C4021  H4021b  .  .  .  110 ?
  H4021a  C4021  H4021c  .  .  .  114 ?
  H4021b  C4021  H4021c  .  .  .  102 ?
  H4021'b  C4021  H4021'c  .  .  .  101 ?
  N402  C4022  H4022a  .  .  .  107.7  ?
  N402  C4022  H4022b  .  .  .  108.5  ?
  N402  C4022  H4022c  .  .  .  110 ?
  H4022a  C4022  H4022b  .  .  .  109 ?
  H4022a  C4022  H4022c  .  .  .  112 ?
  H4022b  C4022  H4022c  .  .  .  109.6  ?
  H4021'a  C4021'  H4021'b  .  .  .  112 ?
  H4021'a  C4021'  H4021'c  .  .  .  112 ?
  H4021'b  C4021'  H4021'c  .  .  .  105 ?
  N402'  C4022'  H4022'a  .  .  .  137.2  ?
  N402'  C4022'  H4022'b  .  .  .  113 ?
  N402'  C4022'  H4022'c  .  .  .  111.0  ?
  H4022'a  C4022'  H4022'b  .  .  .  104.0  ?
  H4022'a  C4022'  H4022'c  .  .  .  89 ?
  H4022'b  C4022'  H4022'c  .  .  .  88.4  ?
  C5011  N501  C5012  .  .  .  110.3(12)  ?
  C5011  N501  C501  .  .  .  108.5(12)  ?
  C5011  N501  H501  .  .  .  122.7  ?
  C5011'  N501  C5012'  .  .  .  106.7(12)  ?
  C5011'  N501  C501'  .  .  .  123.2(14)  ?
  C5011'  N501  H501  .  .  .  127.9  ?
  C5012  N501  C501  .  .  .  111.2(13)  ?
  C5012  N501  H501  .  .  .  91.7  ?
  C5012'  N501  C501'  .  .  .  104.9(14)  ?
  C5012'  N501  H501  .  .  .  94.9  ?
  C501  N501  H501  .  .  .  111.3 ?
  C501'  N501  H501  .  .  .  94.3  ?
  N501  C5011  H5011a  .  .  .  111.6  ?
  N501  C5011  H5011b  .  .  .  108.5  ?
  N501  C5011  H5011c  .  .  .  107.4  ?
  H5011a  C5011  H5011b  .  .  .  112.2  ?
  H5011a  C5011  H5011c  .  .  .  111 ?
  H5011b  C5011  H5011c  .  .  .  107 ?
  N501  C5011'  H5011'a  .  .  .  113 ?
  N501  C5011'  H5011'b  .  .  .  112 ?
  N501  C5011'  H5011'c  .  .  .  109.2  ?
  H5011'a  C5011'  H5011'b  .  .  .  110 ?
  H5011'a  C5011'  H5011'c  .  .  .  107 ?
  H5011'b  C5011'  H5011'c  .  .  .  106 ?
  N501  C5012  H5012a  .  .  .  114 ?
  N501  C5012  H5012b  .  .  .  111.3  ?
  N501  C5012  H5012c  .  .  .  110.8  ?
  H5012a  C5012  H5012b  .  .  .  108 ?
  H5012a  C5012  H5012c  .  .  .  107.6  ?
  H5012b  C5012  H5012c  .  .  .  105 ?
  N501  C5012'  H5012'a  .  .  .  108.8  ?
  N501  C5012'  H5012'b  .  .  .  113 ?
  N501  C5012'  H5012'c  .  .  .  111.9  ?
  H5012'a  C5012'  H5012'b  .  .  .  106.6  ?
  H5012'a  C5012'  H5012'c  .  .  .  106 ?
  H5012'b  C5012'  H5012'c  .  .  .  111 ?
  N501  C501  C502  .  .  .  114.8(14)  ?
  N501  C501  H501a  .  .  .  108.7  ?
  N501  C501  H501b  .  .  .  110.3  ?
  C502  C501  H501a  .  .  .  107.3  ?
  C502  C501  H501b  .  .  .  108.2  ?
  H501a  C501  H501b  .  .  .  107.1  ?
  N501  C501'  C502  .  .  .  112.4(18)  ?
  N501  C501'  H501'a  .  .  .  109.1  ?
  N501  C501'  H501'b  .  .  .  110.9  ?
  C502  C501'  H501'a  .  .  .  107.9  ?
  C502  C501'  H501'b  .  .  .  109.8  ?
  H501'a  C501'  H501'b  .  .  .  107 ?
  C501  C502  N502  .  .  .  114.6(14)  ?
  C501  C502  H502a  .  .  .  107.7  ?
  C501  C502  H502b  .  .  .  107.6  ?
  C501'  C502  N502'  .  .  .  111.6(15)  ?
  C501'  C502  H502'a  .  .  .  109.3  ?
  C501'  C502  H502'b  .  .  .  108.5  ?
  N502  C502  H502a  .  .  .  109.2  ?
  N502  C502  H502b  .  .  .  108.2  ?
  N502'  C502  H502'a  .  .  .  109.5  ?
  N502'  C502  H502'b  .  .  .  109.1  ?
  H502a  C502  H502b  .  .  .  109.4  ?
  H502'a  C502  H502'b  .  .  .  108.7  ?
  C502  N502  C5021  .  .  .  107.9(16)  ?
  C502  N502  C5022  .  .  .  112.5(17)  ?
  C5021  N502  C5022  .  .  .  106(2)  ?
  C502  N502'  C5021  .  .  .  102.4(15)  ?
  C502  N502'  C5022'  .  .  .  118.1(18)  ?
  C5021  N502'  C5022'  .  .  .  109.9(14)  ?
  N502  C5021  H5021a  .  .  .  112.3  ?
  N502  C5021  H5021b  .  .  .  111.7  ?
  N502  C5021  H5021c  .  .  .  111.8  ?
  N502'  C5021  H5021'a  .  .  .  111.9  ?
  N502'  C5021  H5021'b  .  .  .  110.6  ?
  N502'  C5021  H5021'c  .  .  .  109.7  ?
  H5021a  C5021  H5021b  .  .  .  106.5  ?
  H5021a  C5021  H5021c  .  .  .  107.5  ?
  H5021b  C5021  H5021c  .  .  .  106.7  ?
  H5021'a  C5021  H5021'b  .  .  .  109.9  ?
  H5021'a  C5021  H5021'c  .  .  .  108.1  ?
  H5021'b  C5021  H5021'c  .  .  .  106.5  ?
  N502  C5022  H5022a  .  .  .  112 ?
  N502  C5022  H5022b  .  .  .  113 ?
  N502  C5022  H5022c  .  .  .  113 ?
  H5022a  C5022  H5022b  .  .  .  106 ?
  H5022a  C5022  H5022c  .  .  .  105 ?
  H5022b  C5022  H5022c  .  .  .  107 ?
  N502'  C5022'  H5022'a  .  .  .  112 ?
  N502'  C5022'  H5022'b  .  .  .  111 ?
  N502'  C5022'  H5022'c  .  .  .  114 ?
  H5022'a  C5022'  H5022'b  .  .  .  105 ?
  H5022'a  C5022'  H5022'c  .  .  .  108 ?
  H5022'b  C5022'  H5022'c  .  .  .  106 ?
  C6011  N601  C6012  .  .  .  111.4(11)  ?
  C6011  N601  C601  .  .  .  116.1(10)  ?
  C6011  N601  H601  .  .  .  107.8 ?
  C6012  N601  C601  .  .  .  112.2(10)  ?
  C6012  N601  H601  .  .  .  100.8 ?
  C601  N601  H601  .  .  .  107.2  ?
  N601  C6011  H6011a  .  .  .  110.9  ?
  N601  C6011  H6011b  .  .  .  110.9  ?
  N601  C6011  H6011c  .  .  .  111.4 ?
  H6011a  C6011  H6011b  .  .  .  108.0 ?
  H6011a  C6011  H6011c  .  .  .  106.7  ?
  H6011b  C6011  H6011c  .  .  .  108.8  ?
  N601  C6012  H6012a  .  .  .  112.0  ?
  N601  C6012  H6012b  .  .  .  110.5  ?
  N601  C6012  H6012c  .  .  .  110.1  ?
  H6012a  C6012  H6012b  .  .  .  107.5  ?
  H6012a  C6012  H6012c  .  .  .  108.9  ?
  H6012b  C6012  H6012c  .  .  .  107.7  ?
  N601  C601  C602  .  .  .  116.9(14)  ?
  N601  C601  H601a  .  .  .  115.3  ?
  N601  C601  H601b  .  .  .  107.9  ?
  C602  C601  H601a  .  .  .  109.5  ?
  C602  C601  H601b  .  .  .  103.6  ?
  H601a  C601  H601b  .  .  .  101.9  ?
  C601  C602  N602  .  .  .  114.7(15)  ?
  C601  C602  H602a  .  .  .  127 ?
  C601  C602  H602b  .  .  .  103.2  ?
  N602  C602  H602a  .  .  .  112.5  ?
  N602  C602  H602b  .  .  .  94.9  ?
  H602a  C602  H602b  .  .  .  95.8  ?
  C602  N602  C6021  .  .  .  106(2)  ?
  C602  N602  C6022  .  .  .  111.6(14)  ?
  C6021  N602  C6022  .  .  .  119.8(17)  ?
  N602  C6021  H6021a  .  .  .  109 ?
  N602  C6021  H6021b  .  .  .  129 ?
  N602  C6021  H6021c  .  .  .  106 ?
  H6021a  C6021  H6021b  .  .  .  111 ?
  H6021a  C6021  H6021c  .  .  .  89 ?
  H6021b  C6021  H6021c  .  .  .  105 ?
  N602  C6022  H6022a  .  .  .  101 ?
  N602  C6022  H6022b  .  .  .  108 ?
  N602  C6022  H6022c  .  .  .  112 ?
  H6022a  C6022  H6022b  .  .  .  102 ?
  H6022a  C6022  H6022c  .  .  .  110 ?
  H6022b  C6022  H6022c  .  .  .  122 ?
  N011  C011  C012  .  .  .  178.6(12)  ?
  C011  C012  H012a  .  .  .  111.2  ?
  C011  C012  H012b  .  .  .  113.2  ?
  C011  C012  H012c  .  .  .  111.6  ?
  H012a  C012  H012b  .  .  .  107.0  ?
  H012a  C012  H012c  .  .  .  105.6  ?
  H012b  C012  H012c  .  .  .  107.9  ?
  N021  C021  C022  .  .  .  179.6(17)  ?
  C021  C022  H022a  .  .  .  108.2  ?
  C021  C022  H022b  .  .  .  110.0 ?
  C021  C022  H022c  .  .  .  110.1 ?
  H022a  C022  H022b  .  .  .  109.2  ?
  H022a  C022  H022c  .  .  .  108.4  ?
  H022b  C022  H022c  .  .  .  110.9  ?
  N031  C031  C032  .  .  .  179.0(14)  ?
  C031  C032  H032a  .  .  .  113.7  ?
  C031  C032  H032b  .  .  .  114.3  ?
  C031  C032  H032c  .  .  .  110.3  ?
  H032a  C032  H032b  .  .  .  107.3  ?
  H032a  C032  H032c  .  .  .  103.3  ?
  H032b  C032  H032c  .  .  .  107.3  ?
  C041  C042  H042a  .  .  .  113.1  ?
  C041  C042  H042b  .  .  .  112.8  ?
  C041  C042  H042c  .  .  .  111.8  ?
  H042a  C042  H042b  .  .  .  105.9  ?
  H042a  C042  H042c  .  .  .  105.1  ?
  H042b  C042  H042c  .  .  .  107.6  ?
  C042  C041  N041  .  .  .  177.7(11)  ?
  N051  C051  C052  .  .  .  178.3(17)  ?
  C051  C052  H052a  .  .  .  116.4  ?
  C051  C052  H052b  .  .  .  112.8  ?
  C051  C052  H052c  .  .  .  110.0  ?
  H052a  C052  H052b  .  .  .  107.6  ?
  H052a  C052  H052c  .  .  .  108.7  ?
  H052b  C052  H052c  .  .  .  99.9  ?
  N061  C061  C062  .  .  .  177.5(14)  ?
  C061  C062  H062a  .  .  .  112.0  ?
  C061  C062  H062b  .  .  .  113.6  ?
  C061  C062  H062c  .  .  .  110.2  ?
  H062a  C062  H062b  .  .  .  108.1  ?
  H062a  C062  H062c  .  .  .  106.9 ?
  H062b  C062  H062c  .  .  .  105.6  ?
  N071  C071  C072  .  .  .  178.5(13)  ?
  C071  C072  H072a  .  .  .  110.2  ?
  C071  C072  H072b  .  .  .  108.7  ?
  C071  C072  H072c  .  .  .  112.4 ?
  H072a  C072  H072b  .  .  .  107.0 ?
  H072a  C072  H072c  .  .  .  111.0  ?
  H072b  C072  H072c  .  .  .  107.2  ?
  N081  C081  C082  .  .  .  171(2)  ?
  N091  C091  C092  .  .  .  170.6(16)  ?
  N0101  C0101  C0102  .  .  .  165(3)  ?
  N0111  C0111  C0112  .  .  .  179(2)  ?
  N0121  C0121  C0122  .  .  .  178(4)  ?
  H01a  O01  H01b  .  .  .  108.0 ?
  H02a  O02  H02b  .  .  .  92.1 ?
  O0s  S0s  C01s  .  .  .  106.1(14)  ?
  O0s  S0s  C02s  .  .  .  113.9(15)  ?
  C01s  S0s  C02s  .  .  .  86.1(14)  ?
  S0s  C01s  H01sa  .  .  .  102.3  ?
  S0s  C01s  H01sb  .  .  .  108 ?
  S0s  C01s  H01sc  .  .  .  118 ?
  H01sa  C01s  H01sb  .  .  .  100 ?
  H01sa  C01s  H01sc  .  .  .  107 ?
  H01sb  C01s  H01sc  .  .  .  118 ?
  S0s  C02s  H02sa  .  .  .  111 ?
  S0s  C02s  H02sb  .  .  .  109 ?
  S0s  C02s  H02sc  .  .  .  109 ?
  H02sa  C02s  H02sb  .  .  .  111 ?
  H02sa  C02s  H02sc  .  .  .  110 ?
  H02sb  C02s  H02sc  .  .  .  107 ?
 
loop_
_geom_torsion_atom_site_label_1
_geom_torsion_atom_site_label_2
_geom_torsion_atom_site_label_3
_geom_torsion_atom_site_label_4
_geom_torsion_site_symmetry_1
_geom_torsion_site_symmetry_2
_geom_torsion_site_symmetry_3
_geom_torsion_site_symmetry_4
_geom_torsion
_geom_torsion_publ_flag              #<< enter YES for value to be published
     ?  ?  ?  ?  ?  ?  ?  ?  ?  ?
 
loop_
_geom_hbond_atom_site_label_D
_geom_hbond_atom_site_label_H
_geom_hbond_atom_site_label_A
_geom_hbond_site_symmetry_D
_geom_hbond_site_symmetry_H
_geom_hbond_site_symmetry_A
_geom_hbond_distance_DH
_geom_hbond_distance_HA
_geom_hbond_distance_DA
_geom_hbond_angle_DHA
_geom_hbond_publ_flag               #<< enter YES for value to be published
      ?  ?  ?  ?  ?  ?  ?  ?  ?  ?  ?
 
 
#--------------------------------------------------------------------------
#      Special items requested by author for inclusion in paper
#--------------------------------------------------------------------------
 
loop_
_publ_manuscript_incl_extra_item
_publ_manuscript_incl_extra_defn
                       ?  ?
 
#--------------------------------------------------------------------------
#       Items which are non-mandatory for Acta C submissions
#--------------------------------------------------------------------------
 
 
_atom_sites_solution_primary           ?
_atom_sites_solution_secondary         ?
_atom_sites_solution_hydrogens         ?
 
_geom_special_details                  ?
 
 
_cell_special_details
;      ?
;
 
_exptl_special_details
;      ?
;
 
_diffrn_special_details
;      ?
;
 
_chemical_compound_source              ?
_chemical_name_systematic              ?
_chemical_name_common                  ?
_chemical_formula_analytical           ?
_chemical_formula_structural           ?
 
_exptl_crystal_F_000                   5188
 
loop_
_diffrn_standard_refln_index_h
_diffrn_standard_refln_index_k
_diffrn_standard_refln_index_l
  ?  ?  ?
loop_
_diffrn_attenuator_code
_diffrn_attenuator_scale
  ?  ?
 
_reflns_limit_h_min                    0
_reflns_limit_h_max                    29
_reflns_limit_k_min                    -28
_reflns_limit_k_max                    31
_reflns_limit_l_min                    -37
_reflns_limit_l_max                    38
_reflns_number_observed                ?
_reflns_d_resolution_high              .735
_reflns_d_resolution_low               18.344
 
_diffrn_reflns_av_sigmaI/netI          .207
_diffrn_reflns_theta_min               1.11
_diffrn_reflns_reduction_process       ?
 
_diffrn_ambient_temperature            153
_diffrn_radiation_source               'sealed tube'
_diffrn_radiation_monochromator        graphite
_diffrn_radiation_detector             'CCD area detector'
 
_refine_ls_extinction_expression       ?
_refine_ls_matrix_type                 atomblock
_refine_ls_number_restraints           37
_refine_ls_number_constraints          0
_refine_ls_R_factor_all                .13
_refine_ls_wR_factor_all               .073
_refine_ls_goodness_of_fit_all         1.099
_refine_ls_shift/su_mean               .002
 
 
 
#-end-end-end-end-end-end-end-end-end-end-end-end-end-end-end-end-end-end
 
 
