# ========================
# Tonto generated CIF file
# ========================

# NOTE: This is an incomplete CIF file
# Manually edit it to pass checkCIF

data_4AP_aniso_cluster_def2-TZVP

_audit_creation_date                2017-10-23
_audit_creation_method              'Tonto 17.10.11 github v. 48dfa6d'

# ============
# QCr software
# ============

_QCr_software                       'Tonto'
_QCr_software_version               '17.10.11 v. 48dfa6d'
_QCr_software_platform              'Linux-4.4.0-96-generic'
_QCr_software_build_date            '2017-10-11 10:18'
_QCr_software_website               'https://github.com/dylan-jayatilaka/tonto'

# ===========
# Publication
# ===========

_publ_contact_author
;
    Prof. Dr. Sir Tonto Magnifico
;
_publ_contact_author_email          'tonto.magnifico@gmail.com'
_publ_contact_author_phone          '+61 8 6488 3138'
_publ_requested_journal             'IUCrJ'
_publ_section_title
;
   'Hirshfeld atom-refinement (HAR) for 4AP_aniso_cluster_def2-TZVP'
   'X-ray wavefunction refinement (XWR) for 4AP_aniso_cluster_def2-TZVP'
   Tonto Magnifico, IUCrJ (XXXX)
;

loop_
    _publ_author_name
    'Tonto Magnifico'

_publ_author_address
;
    Prof. Dr. Sir Tonto Magnifico
    1 El Camino Ciberespacio
    Tierra Austral del Espiritu Santo
;

# ========
# Chemical
# ========

_chemical_name_common               4AP_aniso_cluster_def2-TZVP
_chemical_formula_sum               'C9 H10 N2 O4'
_chemical_formula_moiety            'C9 H10 N2 O4'
_chemical_formula_weight            210.1910
_chemical_compound_source           'see text'
_chemical_absolute_configuration    unk

# ==========
# QCr method
# ==========

_QCr_calc_method                    'Hartree-Fock/SCCF L=1 R=8.0 A'
_QCr_calc_spinorbital_kind          'restricted'
_QCr_calc_gaussian_basis_set        'def2-TZVP'
_QCr_calc_gaussian_basis_set_kind   'cartesian'
_QCr_calc_basis_max_l               '3'

_QCr_calc_unit                      'See _atom_site_* in tonto.cif2'
_QCr_calc_unit_spin_multiplicity    1
_QCr_calc_unit_n_electrons          110
_QCr_calc_unit_n_alpha_electrons    55
_QCr_calc_unit_n_beta_electrons     55

# =======
# Crystal
# =======

_exptl_crystal_description          ?
_exptl_crystal_colour               ?
_exptl_crystal_size_max             ?
_exptl_crystal_size_mid             ?
_exptl_crystal_size_min             ?
_exptl_crystal_density_diffrn       ?

# ==============
# Absortion data
# ==============

_exptl_absorpt_coefficient_mu       ?
_exptl_absorpt_correction_type      'none'
_exptl_absorpt_process_details      ?
_exptl_absorpt_correction_T_min     ?
_exptl_absorpt_correction_T_max     ?

# ========
# Symmetry
# ========

_symmetry_cell_setting              Monoclinic
_symmetry_space_group_name_H-M      'p 1 21 1'
_symmetry_space_group_name_Hall     'p 2yb'
_symmetry_Int_Tables_number         '4'

loop_
    _symmetry_equiv_pos_as_xyz
'+x, +y, +z'
 '-x, +y+1/2, -z'

# =========
# Unit cell
# =========

_cell_measurement_temperature  ?
_cell_measurement_reflns_used  ?
_cell_measurement_theta_min    ?
_cell_measurement_theta_max    ?

_cell_length_a                   7.85280(10)
_cell_length_b                   5.54510(10)
_cell_length_c                    10.9223(2)
_cell_angle_alpha               90.000000(0)
_cell_angle_beta                   96.394(7)
_cell_angle_gamma               90.000000(0)
_cell_volume                       472.65(2)

_cell_formula_units_Z               2.000000

_atom_sites_solution_hydrogens      HAR

# ===============
# Refinement data
# ===============

_refine_ls_kind                     'Hirshfeld atom refinement (HAR)'
_refine_ls_method_description
;
   S.C. Capelli, H.-B. Burgi, B. Dittrich, S.Grabowsky
   and Dylan Jayatilaka, IUCrJ (2014). 1, 361-379
;
_refine_QCr_Psi_constraint          'none'

_refine_ls_SVD_threshold            0.1E-02
_refine_ls_coordinate_system        cartesian
_refine_ls_structure_factor_coeff   F
_refine_ls_matrix_type              full
_refine_ls_R_factor_gt              0.0196
_refine_ls_R_factor_all             0.0196
_refine_ls_wR_factor_gt             0.0184
_refine_ls_wR_factor_all            0.0184
_refine_ls_R_Fsqd_factor            0.0286
_refine_ls_goodness_of_fit_gt       2.7635
_refine_ls_goodness_of_fit_all      2.7635
_refine_ls_number_reflns            13821
_refine_ls_number_parameters        225
_refine_ls_number_restraints        0
_refine_ls_number_constraints       1
_refine_ls_hydrogen_treatment       refall
_refine_ls_weighting_scheme         sigma
_refine_ls_weighting_details        'w=1/\s(F)'
_refine_ls_shift/su_conv_tol        0.0100
_refine_ls_shift/su_max             0.0069
_refine_ls_shift/su_max_mean        0.0008
_refine_ls_shift/su_max_par         'H1 py'
_refine_ls_extinction_method        none

_refine_diff_density_max            0.3195
_refine_diff_density_min            -0.2824
_refine_diff_density_rms            0.0443
_refine_diff_density_max_atom       0.0700
_refine_diff_density_max_atom_tag   C7
_refine_diff_density_min_atom       -0.1167
_refine_diff_density_min_atom_tag   H6
_refine_diff_density_rms_atom       0.0445

_refine_special_details
;
. If constraints were applied they are defined by zero
  eigenvalues of the least-squares hessian, see the
  value of _refine_ls_SVD_threshold
;

# ======================
# Fractional coordinates
# ======================

loop_
_atom_site_label
_atom_site_fract_x
_atom_site_fract_y
_atom_site_fract_z
_atom_site_U_iso_or_equiv
_atom_site_adp_type
_atom_site_occupancy
_atom_site_disorder_group
   O3   0.379875(19)   0.48338(14)  0.620714(13)  0.01017(5)  Uani  1.000000  0
   O2   0.16630(2)    -0.08701(14)  0.826654(12)  0.01090(5)  Uani  1.000000  0
   O1   0.32224(2)     0.27708(14)  0.785854(12)  0.00969(5)  Uani  1.000000  0
   O4  -0.00056(2)    -0.35752(14)  0.720344(14)  0.01147(5)  Uani  1.000000  0
   N2   0.57989(2)     0.81537(14)  0.754434(15)  0.00966(5)  Uani  1.000000  0
   N1   0.88521(2)     1.35840(14)  0.916012(14)  0.00991(5)  Uani  1.000000  0
   C1   0.31227(2)     0.30910(14)  0.668439(15)  0.00764(5)  Uani  1.000000  0
   C5   0.78561(2)     1.18193(14)  0.863968(14)  0.00726(5)  Uani  1.000000  0
   C6   0.74942(2)     1.16524(14)  0.733572(15)  0.00837(5)  Uani  1.000000  0
   C4   0.09591(2)    -0.18073(14)  0.724697(15)  0.00834(5)  Uani  1.000000  0
   C2   0.21872(2)     0.13115(15)  0.581871(15)  0.00865(5)  Uani  1.000000  0
   C8   0.61160(2)     0.82576(15)  0.878891(17)  0.00981(6)  Uani  1.000000  0
   C3   0.13148(2)    -0.07031(14)  0.604690(15)  0.00904(6)  Uani  1.000000  0
   C9   0.71205(2)     1.00431(15)  0.936384(15)  0.00869(6)  Uani  1.000000  0
   C7   0.64681(2)     0.98290(15)  0.682840(15)  0.00907(5)  Uani  1.000000  0
   H1   0.2487(9)      0.0974(15)   0.8096(6)     0.016(4)    Uani  1.000000  0
   H2   0.2235(7)      0.1785(10)   0.4837(4)     0.027(3)    Uani  1.000000  0
   H6   0.7992(7)      1.2963(11)   0.6742(4)     0.028(3)    Uani  1.000000  0
  H10   0.7353(7)      1.0097(9)    1.0373(4)     0.022(3)    Uani  1.000000  0
   H3   0.0730(7)     -0.1720(10)   0.5252(4)     0.030(3)    Uani  1.000000  0
   H7   0.6126(7)      0.9644(10)   0.5826(4)     0.028(3)    Uani  1.000000  0
   H9   0.5508(7)      0.6854(9)    0.9303(5)     0.027(3)    Uani  1.000000  0
   H4   0.9389(8)      1.4801(10)   0.8609(5)     0.024(3)    Uani  1.000000  0
   H8   0.5022(7)      0.6759(11)   0.7112(5)     0.021(3)    Uani  1.000000  0
   H5   0.8995(8)      1.3819(10)   1.0102(5)     0.023(3)    Uani  1.000000  0

# ====
# ADPs
# ====

loop_
_atom_site_aniso_label
_atom_site_aniso_U_11
_atom_site_aniso_U_22
_atom_site_aniso_U_33
_atom_site_aniso_U_12
_atom_site_aniso_U_13
_atom_site_aniso_U_23
   O3  0.01141(5)  0.00853(5)  0.01033(4)  -0.00303(4)   0.00012(4)  -0.00003(3)
   O2  0.01308(5)  0.01234(5)  0.00728(4)  -0.00188(4)   0.00109(4)   0.00146(3)
   O1  0.01145(5)  0.01012(5)  0.00722(4)  -0.00099(4)  -0.00021(3)  -0.00113(3)
   O4  0.01148(5)  0.01029(5)  0.01277(5)  -0.00285(4)   0.00194(4)   0.00233(4)
   N2  0.00817(5)  0.00878(5)  0.01170(5)  -0.00117(4)  -0.00033(4)  -0.00192(4)
   N1  0.01090(6)  0.01011(6)  0.00859(5)  -0.00300(4)   0.00051(4)  -0.00124(4)
   C1  0.00806(5)  0.00717(5)  0.00748(4)  -0.00074(4)  -0.00002(4)  -0.00033(4)
   C5  0.00748(5)  0.00775(5)  0.00645(5)  -0.00072(4)   0.00038(4)  -0.00012(4)
   C6  0.00918(6)  0.00921(6)  0.00668(5)  -0.00084(4)   0.00063(4)  -0.00008(4)
   C4  0.00833(5)  0.00832(5)  0.00844(5)  -0.00063(4)   0.00120(4)   0.00140(4)
   C2  0.01044(6)  0.00860(6)  0.00670(5)  -0.00274(4)   0.00001(4)   0.00023(4)
   C8  0.00938(6)  0.00873(6)  0.01127(5)  -0.00171(5)   0.00096(4)   0.00093(4)
   C3  0.01066(6)  0.00900(6)  0.00728(5)  -0.00299(5)   0.00020(4)   0.00025(4)
   C9  0.00904(6)  0.00942(6)  0.00754(5)  -0.00119(4)   0.00065(4)   0.00095(4)
   C7  0.00874(6)  0.01018(6)  0.00799(5)  -0.00003(5)  -0.00043(4)  -0.00186(4)
   H1  0.015(4)    0.007(4)    0.026(4)    -0.006(3)     0.003(3)    -0.005(3)
   H2  0.037(3)    0.025(3)    0.020(2)    -0.021(3)     0.006(2)     0.003(2)
   H6  0.038(3)    0.032(3)    0.016(3)    -0.021(3)     0.006(2)     0.005(2)
  H10  0.027(3)    0.021(3)    0.017(2)    -0.004(2)     0.000(2)    -0.001(2)
   H3  0.047(3)    0.023(3)    0.020(3)    -0.016(3)     0.004(2)    -0.001(2)
   H7  0.040(3)    0.032(3)    0.012(2)     0.003(3)     0.001(2)     0.000(2)
   H9  0.035(3)    0.020(3)    0.026(3)    -0.011(2)     0.007(2)     0.004(2)
   H4  0.039(3)    0.013(3)    0.020(3)    -0.007(3)    -0.001(2)     0.003(2)
   H8  0.021(3)    0.017(3)    0.025(3)    -0.009(3)     0.002(3)    -0.003(2)
   H5  0.033(3)    0.019(3)    0.017(3)    -0.002(3)     0.004(2)    -0.004(2)

# NOTE: Cartesian 9Nx9N covariance matrix in BOHR units
# The order of the variables (per atom) is as follows:
# . Elements 1-3: positions: x y x
# . Elements 4-9: 2nd order ADPs:
#      U 11 22 33 12 13 23
# . Elements 10-19: 3rd order ADPs (if refined):
#      U 111 222 333 112 113 122 223 133 233 123
# . Elements 20-34: 4th order ADPs (if refined):
#      U 1112 1113 1222 2223 1333 2333
#        1122 1133 2233 1123 1223 1233
# . Matrix is output in (fortran) column order

_asym_unit_covariance_matrix
;
  0.79326381E-07 -0.70866114E-08 -0.19777129E-08  0.42301950E-09  0.10481065E-09
 -0.26536960E-09  0.94531770E-10  0.25809402E-09 -0.51322746E-09  0.68836378E-09
  0.42445806E-09  0.30536894E-08 -0.18779667E-08  0.27061822E-09  0.32869889E-09
  0.37895935E-09 -0.12898024E-09  0.20979882E-09  0.17230552E-08 -0.18203027E-09
 -0.96859966E-10 -0.11937765E-08  0.70512246E-09  0.45954547E-10  0.35383061E-09
  0.19201048E-09  0.19284205E-09 -0.59843621E-09 -0.53992437E-09 -0.59541111E-09
  0.16186113E-10  0.26713048E-09  0.10030344E-09  0.28207409E-09 -0.17535674E-08
  0.13744599E-09  0.41394111E-08 -0.55279286E-09  0.90551729E-09  0.12203832E-10
  0.18053611E-09 -0.20025297E-09  0.95235424E-09  0.31662316E-10 -0.86822891E-11
  0.11548282E-08  0.94749299E-10  0.42253192E-09  0.20837773E-08 -0.35137781E-09
 -0.47023788E-09 -0.33913745E-09 -0.59194497E-11 -0.80933586E-09 -0.90059616E-09
 -0.79807868E-09 -0.16480914E-08 -0.10714122E-08  0.45361998E-09  0.47630163E-10
 -0.36554794E-11 -0.41474366E-09 -0.26031508E-09  0.15205608E-08  0.16816272E-08
  0.30947143E-09 -0.15518833E-09 -0.38122169E-09  0.58518897E-09  0.65804158E-09
 -0.55150514E-10 -0.36068658E-09  0.10373200E-08  0.21641503E-09  0.10082391E-08
  0.58921910E-09  0.49170420E-11  0.32500157E-09  0.57266191E-10 -0.23560873E-10
 -0.37459551E-09 -0.34810331E-08  0.66707346E-09 -0.12458173E-09 -0.50011379E-09
 -0.24885507E-09  0.41652134E-09 -0.12900134E-09  0.42477434E-09 -0.30191086E-09
  0.16656404E-08  0.39270161E-08  0.68253846E-09 -0.30850205E-09 -0.12429994E-09
  0.43987083E-09 -0.10736349E-09  0.93726271E-10 -0.40802886E-09 -0.13703100E-08
 -0.43348119E-09  0.18631028E-08  0.50449068E-09  0.24154010E-09 -0.28917790E-10
 -0.20379232E-08  0.49194960E-09  0.17285516E-08 -0.83647480E-09 -0.13168628E-09
  0.75394613E-09  0.14201450E-08 -0.12961918E-09 -0.10105888E-08  0.57202870E-09
  0.13715695E-08 -0.31824138E-09 -0.73973678E-08  0.21845496E-08  0.18578581E-08
  0.10353232E-08  0.51746393E-09  0.83656946E-10  0.58958264E-09 -0.69476508E-09
  0.79894856E-10  0.52545672E-08  0.49802849E-09 -0.53594249E-09 -0.17193118E-08
  0.51270885E-09 -0.96652046E-10  0.18179556E-09  0.60183445E-09 -0.35041267E-09
 -0.37239922E-07 -0.48741287E-07 -0.36265610E-07  0.17160183E-06  0.44420676E-07
 -0.62478327E-07  0.60430445E-07 -0.13721974E-06  0.16144634E-07 -0.49683598E-07
  0.69029278E-07 -0.44561294E-07 -0.11875642E-06 -0.18704276E-07  0.20172925E-07
  0.10229285E-06  0.35999288E-07  0.82667753E-07  0.11005995E-06 -0.62271030E-07
 -0.42490482E-07  0.57751453E-07  0.44945472E-07 -0.33117638E-07 -0.46893229E-08
  0.41919262E-08  0.23905990E-07  0.30319216E-07 -0.66898984E-08  0.48452702E-07
 -0.19330407E-06  0.10349959E-07  0.17817294E-07  0.22162770E-07  0.94116705E-07
  0.47689771E-07  0.16915439E-08 -0.42148509E-07  0.19645326E-07 -0.90617261E-07
 -0.54269755E-07  0.61324208E-07 -0.45398319E-07  0.10693758E-06 -0.86765596E-09
  0.10808327E-06  0.39021084E-07  0.13506590E-07  0.34159512E-07  0.49712104E-07
 -0.35804778E-07 -0.36880745E-08  0.11430872E-07  0.34199908E-07 -0.15487163E-06
  0.73202003E-07 -0.83879001E-08  0.14626441E-06 -0.15678297E-08 -0.52034832E-07
 -0.52640260E-07  0.46104850E-08 -0.80103120E-08  0.21748630E-06 -0.49990182E-07
  0.12434570E-07 -0.10775988E-06  0.57005832E-07  0.58279096E-07  0.24092931E-07
  0.74966350E-08 -0.54319847E-07  0.16385690E-07 -0.10496266E-06  0.19628056E-07
 -0.13851585E-06  0.14267556E-07 -0.25285647E-07  0.21397344E-07 -0.60098251E-07
  0.13592046E-07 -0.27991012E-07  0.13358190E-06  0.69147409E-08 -0.14781883E-06
  0.86551088E-07 -0.66765677E-07 -0.35565591E-07  0.83325766E-07  0.52793049E-07

 -0.70866114E-08  0.22920910E-05 -0.16551155E-08  0.52708410E-08  0.18294450E-10
  0.40904368E-08 -0.59906974E-08 -0.12801665E-08 -0.31040944E-08  0.32467640E-08
  0.21953751E-05 -0.88198695E-08  0.22302487E-08 -0.90818360E-08  0.29977765E-08
 -0.38470129E-08  0.21408072E-08  0.18534964E-08 -0.21536435E-08  0.22109788E-05
  0.44774527E-08  0.18163874E-08  0.95111428E-08 -0.61347398E-09  0.41366118E-08
  0.33863214E-09 -0.67900910E-09  0.54033078E-08  0.21928123E-05  0.47298911E-08
  0.81905019E-09  0.37799048E-08  0.12129470E-08  0.38480328E-08  0.23127331E-08
  0.70956194E-09 -0.35538482E-08  0.21879061E-05  0.63816746E-08  0.29458035E-08
 -0.21350044E-08 -0.34182167E-09  0.43668025E-10  0.17564396E-08 -0.72693079E-09
 -0.35715263E-08  0.21800526E-05  0.86647754E-09  0.99249991E-09  0.11467546E-08
  0.17002311E-08 -0.17436035E-09 -0.34552761E-08  0.45764998E-08  0.10570832E-07
  0.21672670E-05 -0.33422401E-08 -0.83351102E-09  0.26807630E-08  0.72679482E-09
 -0.23934794E-08 -0.13752269E-08  0.29057950E-08  0.32989973E-08  0.21928250E-05
  0.67680004E-08 -0.55078414E-08  0.10990283E-07  0.83999418E-09 -0.21156478E-08
 -0.37712345E-09 -0.31383814E-09 -0.10439471E-07  0.21677074E-05 -0.11748279E-07
  0.44068683E-08 -0.55438785E-08  0.11494346E-08 -0.17794337E-08 -0.72603802E-10
  0.11493727E-08  0.59719180E-08  0.21823377E-05 -0.52079704E-08  0.61629733E-08
 -0.35052742E-08 -0.20744652E-08  0.48378336E-08  0.53537029E-09 -0.21801091E-08
 -0.14104247E-08  0.22164252E-05  0.11742303E-07 -0.12371986E-08 -0.20702066E-08
  0.28770282E-08 -0.47279255E-08  0.40493630E-10 -0.10226772E-08  0.13117838E-07
  0.21938656E-05 -0.60000664E-09 -0.35147284E-08  0.11450634E-07  0.27949235E-08
  0.17776576E-09 -0.15854665E-08  0.25481439E-08  0.30738737E-08  0.21916181E-05
 -0.10850082E-08  0.64007421E-08 -0.55297041E-08 -0.51363627E-09 -0.33314133E-08
  0.17262592E-08 -0.27280232E-08  0.12608631E-08  0.21986959E-05 -0.24453484E-08
  0.36839165E-08  0.17244958E-08  0.23711471E-08 -0.10902420E-08 -0.17394231E-08
  0.27941013E-08  0.37490896E-08  0.22026008E-05 -0.78423242E-08  0.32972341E-08
 -0.53936255E-08  0.27558412E-08 -0.12616918E-08 -0.14557288E-08 -0.58459626E-08
 -0.52242837E-06 -0.98067961E-05  0.16703834E-05 -0.87484074E-07  0.18886096E-05
 -0.94432304E-07  0.16430297E-06 -0.18984589E-07  0.16221317E-07  0.15770260E-05
 -0.18988449E-05 -0.52433549E-06  0.18866895E-06 -0.22777563E-06  0.11519310E-06
  0.57231178E-06 -0.40094294E-06 -0.19359855E-06  0.18410177E-05 -0.33323438E-05
 -0.17537356E-06  0.62749928E-06 -0.55987163E-06 -0.11931349E-06  0.79593982E-07
  0.65219611E-06 -0.12281453E-05  0.33095406E-06 -0.82811298E-06 -0.87221717E-08
 -0.10951233E-06 -0.37803569E-06  0.13273216E-06 -0.20881601E-06  0.40390375E-06
 -0.43286477E-06  0.13875406E-05 -0.34247751E-05 -0.10447836E-06 -0.57666298E-06
  0.49632067E-06  0.47465354E-06 -0.49992247E-06 -0.43027741E-06 -0.43040675E-06
  0.12985893E-06 -0.24678023E-05  0.48710273E-06  0.28440735E-06 -0.81787607E-06
  0.26011914E-06  0.91702694E-06 -0.17787215E-06  0.53855374E-06  0.17610053E-05
 -0.39781084E-05  0.42702523E-06  0.95341316E-07 -0.95695076E-06  0.64394010E-06
 -0.11469537E-06  0.12610315E-06  0.55224330E-06  0.11290981E-05 -0.22626662E-05
 -0.44219458E-06 -0.33581456E-06 -0.74702522E-06 -0.44864933E-08 -0.83052983E-07
  0.13187538E-06 -0.57522313E-06  0.84751209E-06 -0.31455922E-05 -0.65167941E-06
 -0.29871684E-06  0.16438755E-06  0.66139850E-06  0.50352073E-06 -0.47299787E-06
  0.92233380E-07  0.11712461E-06 -0.18275168E-05  0.42213890E-06  0.35584663E-07
  0.48448051E-06  0.27580203E-06 -0.79198656E-06  0.77564482E-06 -0.10317108E-05

 -0.19777129E-08 -0.16551155E-08  0.71056872E-07 -0.39729593E-09 -0.69286067E-10
  0.15980636E-08 -0.35368203E-09  0.25788508E-09  0.22905712E-09  0.43140148E-08
 -0.17240444E-08  0.94484103E-11 -0.15571153E-09 -0.25735077E-09  0.62142761E-09
  0.13729491E-09 -0.20778303E-09  0.87635475E-10 -0.31347727E-09 -0.27966871E-08
 -0.28839241E-09  0.44671856E-09 -0.38466706E-09 -0.91500156E-09 -0.57358469E-11
 -0.34473746E-09  0.12854676E-08  0.14816125E-09 -0.46304003E-08  0.24600360E-08
 -0.40187383E-10 -0.11340975E-09 -0.29667375E-08  0.93047277E-10  0.46944099E-09
 -0.94967638E-09  0.15807665E-09 -0.46496919E-08 -0.56359349E-09 -0.18600814E-09
 -0.16858295E-09  0.73030824E-09  0.11224995E-09 -0.17123318E-09 -0.18265705E-09
  0.36087925E-10 -0.15681809E-08 -0.16874252E-08 -0.41299368E-10  0.35211326E-09
 -0.33968964E-09 -0.60626526E-09 -0.47328935E-09 -0.47401098E-09 -0.17590532E-08
 -0.25859609E-08  0.73130610E-09 -0.42912527E-09  0.31056254E-09  0.12089515E-09
 -0.61666336E-10 -0.21939284E-09  0.48518087E-09 -0.11668399E-09 -0.22211361E-08
 -0.34118058E-09  0.34186213E-09 -0.41669476E-09 -0.37729919E-09 -0.23157461E-09
  0.85206361E-09  0.74077708E-09  0.10888871E-08 -0.58118265E-08 -0.20481492E-08
  0.10633977E-09  0.44174933E-09 -0.53736274E-09 -0.36619147E-09  0.47474422E-09
  0.33054445E-10 -0.80502258E-09 -0.13193525E-08 -0.24473075E-08  0.20928425E-09
 -0.74301725E-10  0.96252740E-09 -0.17472571E-09  0.50058935E-09  0.71103883E-09
  0.59489567E-09 -0.19919976E-08 -0.78125763E-09  0.20369221E-09  0.49965265E-09
 -0.11329292E-08 -0.58680741E-09  0.13673913E-09 -0.22216247E-09  0.20004169E-08
 -0.65290365E-08  0.93989757E-10 -0.64189961E-10  0.13648114E-08  0.16283453E-09
  0.15395023E-08  0.23739137E-09  0.13764523E-08  0.89092044E-09 -0.45695195E-08
 -0.30196219E-08  0.37175340E-09 -0.75229194E-10  0.14304268E-08 -0.99014953E-10
 -0.97255072E-09 -0.82222046E-09  0.18186508E-08 -0.27131659E-08 -0.57659290E-08
 -0.29321534E-09 -0.84043080E-09  0.42267171E-10  0.58716789E-12  0.81797797E-09
  0.63465029E-09  0.21517179E-09 -0.22588748E-08  0.10173923E-08  0.51501190E-09
 -0.48224396E-09  0.12284451E-08 -0.45880289E-09 -0.59462288E-09 -0.48063109E-09
  0.23141519E-07  0.34655889E-07  0.69627572E-07 -0.87888903E-07  0.11955072E-06
 -0.60502994E-07  0.34708168E-07  0.32207552E-07 -0.12958799E-07 -0.23815561E-07
  0.29510345E-07  0.48646487E-07  0.16339411E-07 -0.49788272E-07  0.84191682E-07
  0.79243650E-07 -0.21654583E-07 -0.50138656E-08 -0.43581505E-07 -0.57566600E-07
 -0.29311789E-07 -0.16497240E-07  0.42570240E-07  0.39015330E-07  0.22953408E-07
  0.14060430E-07 -0.77031479E-07  0.28620780E-07  0.59147899E-08 -0.56765918E-07
  0.50834319E-07  0.39119380E-07  0.12759109E-07  0.41245453E-07 -0.64049608E-07
 -0.80750514E-07  0.51475250E-09  0.47041469E-07  0.88823567E-07  0.84256950E-07
 -0.38576807E-07  0.22959821E-07 -0.55671792E-09  0.27165856E-07 -0.71340488E-09
  0.76716207E-09 -0.33243778E-07 -0.52721035E-07  0.48306219E-07 -0.12045218E-06
 -0.38517510E-07  0.94786198E-07 -0.29414880E-07 -0.10518375E-06 -0.92818725E-08
 -0.53256172E-07  0.12361719E-07 -0.28482628E-07 -0.32663208E-08  0.13297017E-06
  0.22328126E-07  0.15666794E-07 -0.89292274E-08 -0.29012139E-07  0.26082944E-07
  0.12128735E-06  0.30293912E-07  0.80907919E-07 -0.71098402E-07 -0.10201316E-06
  0.79470190E-07  0.70062173E-07 -0.31089987E-07  0.12492461E-07 -0.19267115E-06
 -0.32816267E-07 -0.16866764E-07  0.21835253E-07 -0.60715490E-08 -0.53480661E-07
  0.18026742E-07  0.24592400E-07  0.35393642E-07  0.23717403E-07  0.18945597E-07
 -0.12479145E-07  0.90836424E-07  0.20964537E-07 -0.13397398E-06 -0.82927452E-07

  0.42301950E-09  0.52708410E-08 -0.39729593E-09  0.33381224E-07 -0.65316226E-08
 -0.64147456E-08 -0.31644214E-08 -0.14657794E-08  0.19721000E-09  0.58810927E-09
  0.44272814E-08  0.64333426E-09  0.91419257E-09  0.55949118E-09  0.57045808E-09
 -0.30992711E-09 -0.10714657E-09  0.29578568E-09 -0.63988159E-10  0.46745730E-08
 -0.19374126E-09 -0.37953004E-09  0.71185976E-09  0.99782335E-09 -0.49322300E-09
 -0.83234680E-10 -0.19504464E-09 -0.90577958E-09  0.44990260E-08  0.11776390E-10
 -0.19867697E-08  0.10607687E-08  0.12043187E-08  0.27227954E-09 -0.16247385E-09
  0.10155168E-09  0.12209863E-08  0.53780242E-08 -0.35423284E-09  0.37576253E-09
  0.58447106E-09  0.38577921E-09 -0.28533413E-09 -0.28557193E-09 -0.12595349E-10
  0.20824020E-09  0.43851957E-08 -0.13791787E-10 -0.10098568E-08  0.76413199E-09
  0.76210220E-09  0.73146362E-09  0.20331683E-09 -0.30424896E-09  0.14813207E-08
  0.50026091E-08 -0.40416705E-09 -0.18448539E-08  0.12723343E-08  0.43369797E-09
  0.55956996E-09 -0.44186841E-09 -0.25292006E-09 -0.13531775E-08  0.45554870E-08
 -0.49217932E-10 -0.47098900E-09  0.86350895E-09  0.48673677E-09 -0.26233391E-09
 -0.21008187E-09 -0.25933259E-09  0.24560124E-08  0.40158347E-08 -0.12145640E-08
  0.11507790E-08  0.80048488E-09  0.37232423E-09 -0.84264173E-09 -0.16437212E-09
  0.46702832E-10 -0.99246847E-09  0.37964575E-08 -0.55919962E-09 -0.13873042E-08
  0.73584364E-09  0.12471937E-08  0.78466915E-09  0.49650310E-09 -0.13385828E-09
 -0.11781457E-09  0.43972718E-08  0.96100968E-10 -0.40583655E-09  0.76197635E-09
  0.67592047E-09  0.18206246E-10 -0.13215218E-10 -0.13432398E-09 -0.68825478E-09
  0.27340272E-08 -0.92109035E-09 -0.42976598E-10  0.78955662E-09  0.71955430E-09
 -0.12979515E-09  0.51414751E-09  0.28473288E-09  0.78911276E-09  0.32351540E-08
  0.21420260E-09 -0.96886753E-09  0.88356423E-09  0.79652792E-09 -0.46387022E-09
  0.41500024E-09  0.14094793E-10 -0.12753826E-08  0.51059332E-08 -0.95708751E-09
 -0.24779268E-09  0.28235866E-09  0.11103159E-08  0.55550306E-09  0.60207175E-09
  0.59388686E-10 -0.31165992E-09  0.41708447E-08 -0.20411214E-09 -0.13049621E-08
  0.85569364E-09  0.78391483E-09  0.32505602E-09 -0.17357386E-09  0.18631573E-09
 -0.13981349E-07  0.78057822E-09  0.19446579E-07 -0.44223881E-07 -0.77786707E-08
  0.13904900E-07  0.41688959E-07  0.38340960E-07 -0.93886794E-08  0.64422311E-07
 -0.57300032E-07  0.24028670E-08 -0.27734747E-07  0.26698418E-07  0.14271938E-07
 -0.25879383E-07  0.71680267E-08  0.36531374E-08  0.21206185E-07  0.58705257E-07
 -0.13965646E-07  0.21794468E-07  0.62983927E-08  0.66239812E-08 -0.24227823E-07
 -0.21536174E-07 -0.17804709E-07 -0.11659462E-07 -0.71538726E-08  0.60614106E-08
  0.36364965E-08  0.41780148E-08 -0.10684973E-07  0.26169442E-07 -0.25386989E-07
  0.97168461E-11 -0.16960938E-07 -0.37447914E-07 -0.35029447E-08 -0.10218076E-07
  0.23373385E-07 -0.34918593E-08  0.14535967E-08 -0.26330427E-07  0.30677742E-07
 -0.94777338E-08 -0.36460100E-08  0.16504974E-08 -0.16230119E-07  0.10391215E-08
 -0.62096703E-08  0.22627656E-07 -0.28199553E-07 -0.31252898E-08  0.13489826E-07
 -0.34916010E-07  0.98701729E-09 -0.63731518E-09 -0.43327975E-07  0.23075837E-07
  0.85168818E-07 -0.29727616E-08  0.50569408E-08 -0.68497367E-07 -0.93878223E-08
  0.50424914E-08 -0.54731465E-07 -0.35477695E-07  0.45531654E-07  0.26774301E-08
 -0.14695208E-07  0.26226682E-07 -0.42103406E-07  0.11941613E-07 -0.39371347E-07
 -0.10708305E-06 -0.92417118E-08  0.36674556E-07  0.62051613E-08  0.17729776E-07
  0.12579231E-07  0.44497279E-07  0.12775651E-07  0.12127111E-07 -0.11849496E-07
  0.35786088E-07  0.41528288E-09 -0.24764061E-07 -0.75298005E-08 -0.15330032E-07

  0.10481065E-09  0.18294450E-10 -0.69286067E-10 -0.65316226E-08  0.27032482E-07
 -0.64982195E-08 -0.29614508E-08 -0.31740326E-09  0.44070146E-10 -0.11137870E-08
  0.14531413E-08  0.37503041E-09  0.20883989E-09 -0.68040848E-09  0.74427240E-09
  0.17322100E-09  0.53081388E-10 -0.63220035E-10  0.13423830E-10 -0.31149214E-09
 -0.57600562E-09  0.64286025E-09 -0.14706649E-08  0.82434348E-09  0.11397511E-09
  0.19868903E-10  0.26237288E-10 -0.77822054E-10  0.24073418E-08  0.40977381E-10
  0.91139581E-09 -0.69490010E-09  0.30082022E-09  0.67147239E-10  0.21261368E-09
 -0.29864014E-09  0.63369852E-10  0.15673083E-08 -0.34271722E-09  0.53540622E-09
 -0.14148701E-08  0.65780802E-09  0.34729220E-09  0.65170201E-10  0.48698312E-09
  0.82043093E-09 -0.48078659E-09  0.82027663E-09  0.78035081E-09 -0.11059914E-08
  0.70167324E-09  0.10864644E-09  0.35294674E-09 -0.30556540E-09 -0.38716540E-09
  0.13022537E-08  0.60466425E-09  0.11739449E-08 -0.24022260E-08  0.87692124E-09
  0.94357115E-10 -0.12032152E-09  0.23079524E-09 -0.28480755E-09  0.25327366E-08
 -0.52527516E-09  0.73883733E-09 -0.90643633E-09  0.73439967E-09 -0.53901196E-10
 -0.11652230E-10  0.24857328E-10 -0.45430921E-09  0.41093561E-09  0.94620366E-10
  0.56265513E-09 -0.93457005E-09  0.55037941E-09  0.26543445E-09 -0.58279838E-10
 -0.27372131E-09  0.43037145E-09 -0.10958389E-08  0.84961526E-09  0.58726087E-09
 -0.23867573E-09  0.92087040E-09  0.39700977E-09 -0.22843703E-09  0.42728494E-09
 -0.49254338E-09  0.79011978E-10 -0.22947756E-09  0.80053133E-09 -0.51500158E-09
  0.48336050E-09  0.72160373E-10  0.29037299E-09  0.88100835E-10  0.15443605E-09
  0.74188708E-09 -0.77403383E-09  0.77704655E-09 -0.15934713E-08  0.20170014E-09
 -0.27870933E-09 -0.55485959E-09 -0.54617822E-09  0.92967647E-10  0.28621604E-08
 -0.56521667E-10  0.77547483E-09 -0.23441799E-08  0.91876339E-09  0.59338961E-09
  0.14508010E-09  0.32072386E-09  0.69050794E-10 -0.13095534E-08 -0.49389094E-09
  0.52870128E-09 -0.62143382E-09  0.68069974E-09  0.69967445E-10  0.69068978E-10
  0.57989943E-10 -0.37570773E-09 -0.19683167E-09 -0.29180692E-09  0.84130295E-09
 -0.54128719E-09  0.54181482E-09  0.37661458E-10 -0.14129520E-09  0.20446005E-09
  0.25715513E-07 -0.30740167E-07 -0.10693633E-07  0.14422434E-08  0.26251438E-07
 -0.27978395E-07 -0.12387156E-07 -0.37832077E-08  0.25729664E-07 -0.34819067E-07
  0.82951246E-08 -0.33355365E-07  0.11017109E-07 -0.22621415E-07  0.55767332E-08
  0.27865856E-08 -0.12556480E-08  0.94101330E-08  0.35138924E-07 -0.20521241E-07
  0.65455873E-08  0.12766800E-07 -0.10764487E-06  0.17765340E-07 -0.20295410E-07
  0.87459617E-08 -0.17598633E-07  0.17799620E-07 -0.92413346E-08  0.30038876E-07
  0.17787657E-08  0.57725932E-07 -0.15466853E-08  0.97140848E-08  0.14540985E-07
  0.25091796E-07  0.18420740E-07  0.35736073E-08 -0.71847489E-08 -0.91612150E-08
  0.64050891E-07 -0.98952527E-08 -0.10424549E-07  0.18924111E-07 -0.47872073E-07
  0.93139034E-08  0.71256143E-07 -0.11451914E-07  0.65663700E-08  0.55399283E-07
 -0.66322568E-08 -0.17580660E-07 -0.53588459E-08  0.82969299E-08  0.81708817E-08
 -0.37772958E-07 -0.12974123E-07 -0.22066499E-07  0.14840098E-06 -0.16689616E-07
 -0.73877193E-08 -0.75598451E-08  0.10086320E-07 -0.22087874E-07 -0.31350495E-07
  0.19067126E-07 -0.45139425E-07 -0.12360449E-08  0.83974345E-08  0.20192262E-07
 -0.15192215E-07  0.32128009E-07  0.17774830E-07  0.56236857E-08  0.52081272E-08
  0.28613693E-07  0.47375312E-08 -0.23189918E-07 -0.25139832E-07  0.27365748E-07
  0.25821840E-07 -0.49215913E-08  0.30897067E-07  0.12858162E-08  0.27127174E-07
  0.15248540E-07 -0.35388023E-08  0.12314873E-07 -0.94760615E-11 -0.64863502E-08

 -0.26536960E-09  0.40904368E-08  0.15980636E-08 -0.64147456E-08 -0.64982195E-08
  0.23993955E-07  0.64373278E-09  0.81710345E-09  0.87456222E-10  0.10236653E-08
  0.34110047E-08 -0.18089507E-08  0.76772602E-09  0.88239764E-09 -0.83892291E-09
 -0.57848016E-10  0.58277151E-11 -0.32158566E-09  0.15253041E-09  0.37261565E-08
 -0.17314977E-09  0.11577072E-08  0.10453409E-08 -0.14247873E-08  0.18112904E-09
 -0.20359414E-09  0.63599033E-11 -0.30306696E-09  0.38124032E-08 -0.71836625E-09
  0.11807692E-08  0.31519306E-09  0.40203648E-09 -0.24823606E-09 -0.26233108E-09
 -0.68677231E-10 -0.34406802E-09  0.27217151E-08 -0.24557240E-09  0.27485149E-09
  0.85798901E-09  0.79802477E-09 -0.12834033E-09 -0.50969301E-10  0.22582293E-09
 -0.29605941E-09  0.44108560E-08 -0.12262400E-08  0.69589520E-09  0.85524722E-09
 -0.67833912E-09 -0.38952437E-09 -0.33169311E-09  0.26785458E-09 -0.72493752E-09
  0.29682096E-08  0.20018845E-08  0.45447406E-09  0.10946801E-08 -0.12879375E-09
 -0.28723362E-09  0.29588492E-09  0.30610161E-09 -0.12633179E-09  0.39017997E-08
 -0.13925607E-09  0.63622195E-09  0.84260715E-09 -0.10570397E-08  0.25282461E-10
 -0.19289953E-09  0.27080253E-09 -0.23012387E-09  0.39724569E-08  0.26957753E-09
  0.44437074E-09  0.59292764E-09 -0.76734701E-09 -0.35908183E-10 -0.11486580E-09
  0.34386865E-09 -0.34419919E-09  0.32578248E-08 -0.20756194E-08  0.11678754E-08
  0.97027318E-09 -0.16646541E-08 -0.10555525E-09  0.51408429E-09  0.71191983E-09
  0.16966889E-09  0.32106141E-08 -0.98742344E-09  0.56705249E-09  0.56296266E-09
 -0.25138254E-09 -0.32390434E-09 -0.58046911E-09  0.28869326E-09  0.77536181E-09
  0.57628160E-08 -0.35749551E-09  0.46668182E-09  0.34901317E-09  0.30678824E-09
 -0.27933375E-10  0.11466679E-09  0.72296045E-10 -0.94638664E-09  0.32934174E-08
  0.87206520E-09  0.86855305E-09  0.78860951E-09 -0.61746466E-09 -0.11220715E-09
  0.25256975E-09  0.55231851E-09 -0.77721062E-09  0.35195223E-08 -0.10897363E-08
  0.11305015E-08  0.64837676E-09 -0.12198690E-08 -0.59085376E-10 -0.19980932E-09
 -0.27285677E-09 -0.35401695E-09  0.40074741E-08  0.79445652E-09  0.78566547E-09
  0.54877178E-09 -0.51883126E-09 -0.27576647E-09 -0.10320284E-10 -0.36701901E-09
 -0.94071450E-08 -0.19826070E-07  0.19947172E-07 -0.79370284E-08 -0.27136235E-07
  0.40875336E-08 -0.20718265E-07  0.21580948E-07 -0.12892816E-07 -0.16328231E-07
  0.51734625E-08  0.36879072E-07  0.81525895E-08  0.38352519E-08 -0.88689911E-09
  0.11562002E-07 -0.14550127E-07 -0.16494878E-07 -0.10138599E-07 -0.18462852E-07
 -0.71435383E-08  0.16162328E-09  0.96436094E-08 -0.23273448E-07  0.68208158E-08
 -0.17287575E-07  0.26109643E-07  0.13013743E-07  0.13384254E-08 -0.69987773E-07
 -0.12470368E-07  0.18797849E-08 -0.19113060E-07  0.89834830E-09 -0.16980905E-07
  0.17455771E-08 -0.17068465E-07  0.41514934E-08 -0.49343711E-09  0.25204419E-07
 -0.22462572E-07 -0.20279897E-08 -0.10503935E-07 -0.54181538E-08 -0.16523559E-07
  0.82515206E-08 -0.25512940E-07 -0.18300062E-07 -0.72393704E-08 -0.14671836E-08
  0.41886682E-07  0.14932163E-08  0.76794961E-08 -0.30583727E-07 -0.17792958E-08
  0.68144526E-08  0.29328218E-08  0.18990395E-08 -0.16036018E-07 -0.19125389E-07
 -0.17457512E-08  0.37225295E-08 -0.20043550E-09  0.32702489E-07  0.26927289E-07
  0.11099103E-07  0.37890005E-07 -0.15010745E-07 -0.59453972E-07 -0.14040245E-08
  0.11588486E-07 -0.18853815E-07  0.12178999E-07 -0.37238037E-07  0.14218495E-07
  0.10396786E-07 -0.45291752E-08  0.47577597E-07 -0.52758379E-09 -0.23250001E-07
 -0.16613286E-07 -0.25533636E-07  0.56806932E-09  0.32666217E-08 -0.21936480E-07
 -0.18441721E-07  0.28758323E-07 -0.14922072E-07 -0.19925243E-07 -0.11913800E-07

  0.94531770E-10 -0.59906974E-08 -0.35368203E-09 -0.31644214E-08 -0.29614508E-08
  0.64373278E-09  0.18985161E-07  0.15959635E-09 -0.12826483E-08  0.83005589E-09
 -0.54629661E-08 -0.12665428E-09 -0.11017425E-09 -0.14475203E-10 -0.19504939E-09
 -0.13500222E-09 -0.32155258E-09 -0.44582866E-09 -0.51862039E-09 -0.50280268E-08
  0.34071204E-09 -0.27491203E-09  0.12153724E-09  0.12213446E-09 -0.51619446E-10
 -0.44858421E-10 -0.18587351E-11  0.48479068E-09 -0.60809430E-08 -0.27805036E-09
 -0.91299645E-10 -0.28145040E-10 -0.13963216E-09  0.24304839E-09 -0.51202535E-11
  0.59893277E-10  0.29594260E-09 -0.69763880E-08 -0.12161905E-09  0.32968515E-09
  0.62259460E-10 -0.20651190E-09 -0.41203947E-09 -0.60899226E-10 -0.15977650E-09
 -0.21661878E-09 -0.49180602E-08 -0.31917383E-09  0.36525727E-09  0.12752668E-09
 -0.38895071E-10 -0.31402098E-09 -0.72588350E-09  0.28383359E-09 -0.11780512E-09
 -0.60092708E-08 -0.31465230E-09  0.77959005E-11  0.36491773E-09 -0.13881235E-09
  0.16513910E-10  0.21421452E-10  0.23369792E-09  0.12623115E-08 -0.59299414E-08
 -0.27843615E-09 -0.57533861E-09 -0.39752055E-09  0.19665709E-09 -0.22282563E-10
 -0.40775788E-10  0.25319498E-09 -0.12207887E-08 -0.58657477E-08 -0.39405021E-09
  0.11474205E-09 -0.39591910E-09  0.14807110E-10 -0.25939024E-09  0.36943332E-09
  0.10233951E-09  0.28342375E-09 -0.55214903E-08  0.77629407E-10 -0.34438256E-09
 -0.32955398E-09 -0.37672927E-10 -0.14229483E-09  0.32232026E-10 -0.52227521E-11
 -0.61684948E-09 -0.68884737E-08 -0.24774422E-09 -0.83015989E-09 -0.49905148E-09
 -0.45697802E-10  0.29226487E-09 -0.19561079E-09  0.42100093E-10 -0.84152503E-09
 -0.50926478E-08  0.15387776E-08 -0.42529411E-09 -0.19030931E-09  0.42229038E-09
  0.17486746E-09  0.88389288E-09 -0.29410661E-09 -0.45453601E-09 -0.60385336E-08
 -0.53815352E-09  0.30472083E-09  0.42549418E-09 -0.38400749E-09  0.11786060E-09
 -0.67716961E-10  0.49159753E-10  0.37506231E-09 -0.47910186E-08  0.38990218E-09
 -0.20451943E-09  0.46808077E-10 -0.25007164E-09 -0.17314431E-09  0.10435058E-10
 -0.95267133E-10  0.46793117E-09 -0.51925933E-08 -0.49563840E-09 -0.24265106E-09
 -0.30900306E-09 -0.75088691E-11 -0.26515554E-09 -0.53774306E-10  0.17323327E-09
  0.12675225E-07  0.33726649E-07  0.13592086E-07 -0.28921644E-08 -0.39451301E-08
  0.14842332E-07 -0.26596569E-07 -0.18960592E-07 -0.60419963E-08 -0.36827591E-08
  0.77997544E-08  0.12493896E-07 -0.28273714E-07 -0.39633491E-07  0.10607548E-07
  0.98986374E-08  0.12748921E-07 -0.91646373E-08  0.35035522E-08 -0.97143915E-08
  0.85235431E-08 -0.29199780E-07 -0.10990446E-07  0.96648281E-08  0.29552439E-07
  0.20124559E-07  0.88478614E-08 -0.10911698E-07  0.20727519E-07  0.45022140E-08
 -0.74828240E-08 -0.20265165E-07 -0.23356467E-09 -0.28099284E-07 -0.12102087E-07
 -0.14343218E-07 -0.46147727E-07 -0.26244349E-08  0.16471618E-07  0.61800244E-07
 -0.29305166E-07 -0.64661756E-08  0.20551688E-07 -0.90208478E-08  0.11489969E-07
 -0.35464476E-07 -0.22569165E-07  0.13610641E-07 -0.17207599E-07 -0.31626158E-07
  0.40601075E-08  0.72061199E-07  0.18323268E-07 -0.99198885E-08 -0.12669130E-07
  0.57317766E-08  0.97094863E-08 -0.24142505E-07 -0.22186096E-07  0.67185026E-08
 -0.13317050E-07  0.13198542E-07  0.14810109E-07 -0.33704480E-08  0.32484664E-07
 -0.19820189E-07 -0.67330197E-08 -0.95203697E-08  0.71015109E-08  0.10200389E-08
 -0.95727340E-08 -0.28348809E-07 -0.47632838E-08  0.53567382E-08  0.14757319E-08
  0.79082061E-08  0.16155864E-07 -0.43435237E-08  0.15572575E-07 -0.27873633E-07
 -0.26580121E-07 -0.29964588E-07  0.14867689E-07  0.10070522E-08 -0.47381169E-07
 -0.59836351E-07  0.14808367E-07 -0.66085244E-08  0.12010860E-07  0.15554955E-07

  0.25809402E-09 -0.12801665E-08  0.25788508E-09 -0.14657794E-08 -0.31740326E-09
  0.81710345E-09  0.15959635E-09  0.16565444E-07 -0.17173635E-08  0.25176292E-10
 -0.15434531E-08  0.60926792E-09 -0.30566296E-09  0.18209093E-10  0.48440553E-10
 -0.18691227E-10 -0.70489247E-09  0.39533686E-10 -0.11394258E-08 -0.17834043E-08
 -0.26727592E-09 -0.17250140E-09 -0.22614381E-09 -0.87369721E-10 -0.21832069E-09
 -0.48349088E-09  0.13044288E-10 -0.76593210E-09 -0.14131553E-08 -0.95007995E-09
 -0.20950260E-09  0.15844541E-09 -0.38354593E-09 -0.24470947E-09 -0.11148019E-09
 -0.37444011E-10 -0.64302471E-09 -0.21921167E-08  0.21949431E-09 -0.17301385E-09
 -0.56905654E-10 -0.10393062E-09  0.38128507E-09 -0.18681130E-09 -0.44189830E-10
 -0.64306075E-09 -0.12414444E-08  0.35708124E-09  0.24397691E-09  0.19193210E-09
 -0.95190274E-10 -0.22799197E-09 -0.10817997E-08  0.12695388E-09  0.31362931E-09
 -0.16098778E-08 -0.80366240E-09 -0.49794883E-09 -0.16319117E-09  0.19150382E-09
  0.89662843E-11 -0.88271238E-09 -0.73110789E-10 -0.50210568E-10 -0.13753193E-08
 -0.90146832E-09 -0.17084470E-09 -0.76748016E-10 -0.23767566E-09 -0.35378952E-10
 -0.10017367E-08 -0.30768920E-11 -0.18963920E-08 -0.17763254E-08  0.17051105E-09
 -0.17361566E-09  0.10434944E-09 -0.13818295E-09  0.22804624E-09 -0.32002134E-09
 -0.13461010E-09 -0.12905686E-08 -0.10118313E-08 -0.53258762E-09  0.15456329E-09
 -0.94719442E-10  0.59190565E-09  0.34401317E-09 -0.67516707E-09  0.51018383E-09
 -0.82769553E-09 -0.10325398E-08  0.37302627E-10 -0.10466530E-09  0.37424626E-09
 -0.50087843E-09 -0.40482675E-10 -0.68973388E-09 -0.15843537E-10 -0.99854077E-09
 -0.12238200E-08  0.75599446E-10  0.67265479E-09 -0.52073287E-09 -0.38534760E-11
  0.16990531E-09 -0.27393897E-09 -0.29942027E-09  0.19340637E-09 -0.92846294E-09
 -0.77952367E-09  0.54489562E-09 -0.15181877E-11  0.23532492E-09  0.61258950E-09
 -0.93896562E-09  0.20580155E-09 -0.23539434E-08 -0.34387198E-09 -0.19188121E-08
  0.37188206E-09  0.54172463E-10 -0.15079942E-09 -0.13900180E-09 -0.43727278E-09
  0.11789787E-09 -0.73015307E-09 -0.22215292E-08 -0.35351154E-09 -0.14376178E-09
  0.15788261E-10 -0.98646611E-10  0.26095933E-09 -0.11340903E-08 -0.13095561E-09
  0.37361913E-07  0.27694164E-07 -0.10826907E-07  0.53893553E-07 -0.28898717E-07
  0.26886733E-07 -0.97505807E-08 -0.19904724E-07  0.15893162E-07  0.78306658E-09
 -0.91856701E-08 -0.98608667E-08 -0.14388094E-07 -0.99995374E-08 -0.10476270E-07
 -0.39823382E-08 -0.20203958E-08 -0.40639587E-08 -0.28925229E-07 -0.16771911E-07
  0.54968622E-08 -0.26868992E-07  0.93362252E-08 -0.11114051E-07 -0.66178629E-08
  0.79542945E-08 -0.26187529E-07 -0.21453860E-07 -0.12923505E-07  0.94635988E-08
 -0.31392132E-07  0.12043850E-07  0.57208155E-08  0.12580682E-07 -0.30080266E-07
  0.18653652E-07 -0.19303924E-07 -0.19835534E-08 -0.72373957E-08 -0.93375515E-08
  0.40627398E-08 -0.39932365E-08 -0.15534626E-07 -0.17102682E-07 -0.90796181E-08
 -0.16420146E-07  0.12236281E-07  0.48595992E-09 -0.36141319E-07  0.17339335E-07
  0.66134776E-08 -0.29122656E-07  0.18751133E-07 -0.36414849E-08 -0.18081601E-07
 -0.62038312E-08  0.89639969E-08  0.50073212E-09  0.17357013E-07 -0.77567193E-08
  0.24782655E-08 -0.77995449E-08  0.15614417E-07  0.34121496E-07  0.89320664E-08
  0.73185578E-08 -0.32173504E-07 -0.14622152E-07  0.17454922E-07  0.21882005E-07
 -0.45661029E-08  0.19700729E-08 -0.16485401E-07  0.69074108E-08  0.21940299E-07
  0.11484957E-07  0.29387217E-07 -0.35491125E-07  0.18982856E-07 -0.19349938E-07
 -0.95235511E-08 -0.10613070E-07  0.12275867E-07 -0.23407623E-07 -0.10639174E-07
 -0.25811188E-08 -0.14584546E-07 -0.21279470E-08 -0.10654594E-07 -0.29597388E-07

 -0.51322746E-09 -0.31040944E-08  0.22905712E-09  0.19721000E-09  0.44070146E-10
  0.87456222E-10 -0.12826483E-08 -0.17173635E-08  0.15491748E-07  0.24938987E-11
 -0.35341983E-08  0.71356603E-09 -0.83458492E-10 -0.42150675E-09  0.59645359E-10
 -0.43411171E-09 -0.46403122E-10 -0.40013815E-09  0.31449328E-09 -0.38876234E-08
  0.69224825E-09  0.47729942E-10 -0.20575703E-09 -0.12521109E-09 -0.32885261E-11
  0.70329510E-10  0.30334368E-09 -0.19384775E-09 -0.35942394E-08 -0.36831160E-09
  0.21546921E-09  0.38371345E-10 -0.39123233E-09  0.61654475E-10 -0.14573533E-09
 -0.24270915E-09 -0.11605498E-09 -0.34512874E-08  0.17543995E-11 -0.28461330E-09
  0.58293675E-09  0.25913745E-09 -0.17073041E-09 -0.12504227E-09  0.24880203E-09
  0.47605577E-10 -0.35068149E-08 -0.55494008E-09 -0.20792584E-09 -0.53101703E-09
 -0.44694053E-09  0.26611451E-09  0.26924228E-09 -0.26284506E-09 -0.31077048E-09
 -0.45479694E-08  0.25106191E-09 -0.25216138E-09  0.38182983E-09  0.36912683E-09
  0.20373348E-09  0.30002118E-10  0.19206726E-09 -0.30728358E-09 -0.29662014E-08
  0.13559144E-08  0.58501657E-10 -0.40463201E-10  0.12604587E-09  0.18021722E-09
 -0.93908886E-12  0.41378232E-09 -0.37044045E-09 -0.26218487E-08 -0.72650073E-09
  0.31352225E-09 -0.15795609E-09 -0.11030893E-09 -0.27315304E-10 -0.25285752E-10
 -0.26543103E-09  0.13969738E-09 -0.21564426E-08  0.13468362E-09  0.35854259E-09
 -0.55533420E-09 -0.29979537E-09  0.27567746E-10 -0.13306716E-09 -0.12419179E-09
 -0.31371983E-09 -0.43880141E-08 -0.75689240E-10  0.26300470E-09 -0.69785064E-09
  0.18495071E-10  0.13201223E-09 -0.48699096E-09  0.14192270E-09  0.13253182E-08
 -0.18900436E-08  0.15210067E-08  0.30599780E-09  0.52549270E-09  0.12284729E-10
 -0.33311063E-09  0.21620474E-09  0.24149558E-09 -0.66065827E-09 -0.37847697E-08
  0.35458219E-09 -0.34154905E-09  0.98745495E-09 -0.20324608E-09 -0.21812840E-10
 -0.11270658E-09  0.21803116E-09  0.44114345E-09 -0.38014003E-08  0.11997156E-08
  0.19514521E-09  0.18542250E-09 -0.43783368E-09 -0.42768749E-12 -0.50554538E-09
  0.75031939E-10 -0.32358566E-09 -0.29791386E-08 -0.29356677E-09 -0.62251970E-10
 -0.38104206E-09  0.39181570E-09  0.19636967E-09  0.13194650E-09  0.22696112E-09
  0.74722465E-09  0.26600589E-07 -0.72105470E-08 -0.38003762E-08 -0.28621616E-08
 -0.30839824E-07 -0.33170737E-09  0.34068525E-08 -0.11332842E-07  0.99919505E-08
  0.13192006E-08  0.12082684E-07  0.14421403E-07  0.90910585E-08  0.87331633E-09
 -0.95696675E-08  0.29457504E-09  0.63014880E-08 -0.70525457E-08  0.35065645E-07
 -0.24375874E-07  0.67550061E-08  0.37895980E-07 -0.44118490E-09  0.14138295E-08
 -0.10260441E-07  0.14955582E-07  0.10849725E-07  0.75383468E-10 -0.25664714E-07
  0.98937446E-08 -0.64267020E-08 -0.26750015E-07 -0.16289666E-07 -0.94282932E-08
 -0.68601697E-08  0.24435143E-07 -0.20084745E-08  0.14208156E-07  0.60939306E-09
 -0.18466700E-07  0.17040023E-08  0.12485154E-07  0.13783696E-07  0.92974236E-08
  0.19700283E-07 -0.38004289E-07 -0.25897115E-07  0.13317773E-07  0.96802768E-09
  0.13673297E-08 -0.10931482E-07 -0.11174519E-07  0.35831476E-07 -0.72376274E-08
  0.26935952E-07 -0.76556909E-08 -0.81190755E-08  0.53585676E-08  0.16472469E-07
  0.11112494E-07  0.11167849E-08  0.17406792E-08 -0.31053936E-07  0.16209327E-07
  0.38496457E-08  0.18724936E-07 -0.21293828E-07 -0.30474275E-07 -0.26533579E-07
 -0.41873842E-08  0.16858129E-07 -0.47371672E-08 -0.58654154E-08 -0.10624489E-07
 -0.63510941E-08 -0.79257742E-08  0.37110727E-08 -0.23510407E-07  0.44682673E-08
  0.10377741E-07  0.14682645E-07 -0.10113832E-07  0.62993697E-08 -0.42753764E-08
 -0.28366731E-08  0.46202580E-07  0.55885276E-08  0.14704792E-10  0.12004980E-07

  0.68836378E-09  0.32467640E-08  0.43140148E-08  0.58810927E-09 -0.11137870E-08
  0.10236653E-08  0.83005589E-09  0.25176292E-10  0.24938987E-11  0.93765262E-07
 -0.27102755E-08  0.76688002E-09  0.40275248E-09  0.70330965E-09 -0.55266314E-09
 -0.18500532E-08  0.31375843E-10 -0.21843435E-09  0.93833057E-09  0.17839935E-08
 -0.12635436E-08 -0.70186533E-09  0.83055326E-10  0.36052434E-09 -0.39477115E-09
  0.17250813E-09  0.30794436E-09 -0.28228852E-09  0.26758391E-08 -0.18111011E-09
 -0.26214777E-09  0.71835301E-09  0.42952678E-09 -0.26200091E-09 -0.11547791E-09
  0.43832337E-09  0.38769711E-08  0.26941948E-08 -0.30618245E-08 -0.32499610E-09
 -0.21730299E-09  0.35975623E-09  0.91799281E-09  0.27631506E-09 -0.65431316E-09
 -0.21408642E-08  0.46001867E-08 -0.29371179E-08 -0.68894282E-09  0.81387962E-09
  0.11138599E-08 -0.10122404E-08 -0.10893259E-08  0.24703401E-09  0.11017388E-08
  0.26424286E-08 -0.13901700E-08 -0.92633791E-09  0.13344036E-08  0.40663904E-10
 -0.41285599E-09  0.37200910E-09 -0.13630140E-09 -0.95286865E-09  0.18831622E-08
 -0.15050147E-08 -0.19144169E-08 -0.96375181E-11  0.72467162E-09  0.17994063E-09
 -0.37368527E-09 -0.16604367E-09 -0.23011799E-08  0.11821452E-08 -0.19930343E-09
  0.86553965E-09 -0.27287957E-09  0.40966309E-10  0.22388642E-09 -0.33289697E-09
 -0.24551355E-09 -0.39061380E-08  0.17351991E-08  0.80394739E-09  0.82838097E-09
 -0.10767271E-09 -0.38183778E-10  0.30780850E-09  0.37752340E-09  0.34826285E-09
  0.18600398E-08  0.28280858E-08 -0.26650323E-08  0.16554670E-08 -0.10240297E-08
  0.26233256E-09 -0.49164940E-09 -0.42228108E-09  0.32391708E-09  0.17895984E-08
  0.27499798E-08 -0.10440177E-08 -0.88214722E-09  0.10236977E-08  0.57732337E-09
  0.34551105E-09  0.69267313E-09  0.71081737E-09  0.43097607E-08  0.69583059E-09
  0.99534389E-09 -0.35682549E-09  0.38410663E-09  0.10512030E-09  0.17772849E-08
 -0.12408732E-09 -0.25670071E-09  0.11557750E-08  0.54038427E-08  0.38998889E-09
 -0.36104417E-09  0.21899992E-09 -0.17516411E-08 -0.73465157E-09 -0.49713225E-12
  0.17212401E-09  0.12160918E-08  0.25668883E-08  0.45199849E-09  0.11789303E-08
 -0.83743514E-10 -0.43270605E-09  0.78810274E-10  0.15064521E-08 -0.66849630E-09
  0.26380336E-06  0.14596895E-07 -0.70669486E-07  0.13157855E-06 -0.25075018E-06
  0.19077159E-07 -0.11551779E-06  0.14327194E-06  0.11520542E-06  0.23450607E-07
 -0.50325330E-07 -0.18713220E-07 -0.72101432E-07  0.36909535E-07  0.49628062E-07
  0.10753992E-06 -0.54074468E-07  0.87259023E-07 -0.24622285E-07 -0.16320573E-06
 -0.16991948E-07  0.60475882E-07 -0.43846322E-07 -0.71324080E-07  0.35263125E-07
  0.70241757E-08 -0.73828734E-07  0.15333298E-06 -0.69389518E-08 -0.12066637E-07
 -0.62952044E-07  0.12921835E-06 -0.11842244E-07  0.12170552E-06  0.27092452E-07
 -0.13715265E-07 -0.53860797E-07  0.91585721E-08  0.24638650E-07  0.28658991E-06
 -0.24273415E-07 -0.36216261E-07 -0.13578962E-06 -0.74802391E-07 -0.74341768E-09
  0.16645389E-07  0.70599106E-07  0.50710526E-07 -0.24284073E-07  0.19705036E-07
  0.18627971E-07  0.19950028E-07 -0.68740962E-07  0.78755257E-07  0.12738020E-07
 -0.31490631E-07  0.80343248E-07 -0.16218395E-07 -0.12000080E-07  0.59274094E-07
  0.41497814E-07  0.54078449E-08 -0.51147243E-07  0.19042250E-06  0.19625097E-07
 -0.35874327E-07 -0.39669414E-07 -0.16083383E-07  0.18703068E-07 -0.16253970E-06
 -0.30513136E-07  0.11402195E-06 -0.37878076E-07  0.44675888E-07  0.12262474E-07
  0.13546533E-06 -0.89486065E-07 -0.29282168E-07 -0.75443929E-07  0.96076554E-07
 -0.39029355E-07 -0.10366864E-06  0.59326819E-07  0.27828843E-07 -0.28109429E-07
 -0.77827987E-07  0.61867364E-07 -0.10198517E-06  0.22986445E-06 -0.47145435E-07

  0.42445806E-09  0.21953751E-05 -0.17240444E-08  0.44272814E-08  0.14531413E-08
  0.34110047E-08 -0.54629661E-08 -0.15434531E-08 -0.35341983E-08 -0.27102755E-08
  0.22803955E-05 -0.55772480E-08  0.24081783E-08 -0.74146882E-08  0.32014676E-08
 -0.21612781E-08  0.20774217E-08  0.19556009E-08 -0.99018566E-09  0.21995546E-05
  0.49995996E-08  0.59370516E-09  0.98179225E-08 -0.21023804E-09  0.54360988E-08
  0.55450224E-09 -0.37974100E-09  0.38700352E-08  0.21807629E-05  0.28739427E-08
  0.73676903E-09  0.42474959E-08  0.15386295E-08  0.56605167E-08  0.22786597E-08
  0.13017090E-08 -0.38090456E-08  0.21705984E-05  0.89405692E-08  0.17220023E-08
 -0.27237357E-08  0.12793457E-08  0.92199326E-10  0.27326158E-08 -0.63227567E-09
 -0.15920800E-08  0.21674932E-05 -0.44041035E-09  0.32568113E-08  0.39988576E-08
  0.69897914E-09 -0.23893480E-08 -0.25676875E-08  0.35478231E-08  0.11366713E-07
  0.21529258E-05 -0.29678856E-08 -0.29770355E-09  0.80900505E-09  0.12332966E-08
 -0.98307202E-09 -0.12031067E-08  0.33301430E-08  0.20670577E-08  0.21780067E-05
  0.76079420E-08 -0.42808703E-08  0.83625977E-08  0.96372038E-09 -0.16135526E-08
 -0.12154289E-08  0.66088155E-09 -0.95129598E-08  0.21568003E-05 -0.66915303E-08
  0.47516968E-08 -0.32499247E-08  0.19966409E-08 -0.12089005E-08  0.64153484E-09
 -0.12849083E-08  0.92385056E-08  0.21669914E-05  0.37028035E-09  0.68901430E-08
 -0.43792408E-08 -0.74750289E-09  0.36001676E-08  0.59901104E-09 -0.89501248E-09
 -0.19849360E-08  0.22032965E-05  0.93810666E-08 -0.39050233E-09 -0.74928121E-09
  0.45279948E-08 -0.28848372E-08  0.10753079E-08 -0.97295394E-10  0.12759914E-07
  0.21767082E-05  0.28044953E-09 -0.19895299E-08  0.13264368E-07  0.11506356E-08
  0.23623000E-09 -0.34842974E-08  0.42168328E-08  0.34250685E-09  0.21783191E-05
  0.26238921E-10  0.63231938E-08 -0.74143544E-08 -0.14461048E-09 -0.38872052E-08
  0.13242216E-08 -0.25580215E-08  0.58541751E-11  0.21859459E-05 -0.21318742E-09
  0.33530766E-08  0.12910061E-08  0.29193510E-08  0.25272931E-09 -0.19222263E-08
  0.41750268E-08  0.62402341E-08  0.21851302E-05 -0.66237807E-08  0.24925445E-08
 -0.70717851E-08  0.23780782E-08 -0.47606760E-09 -0.17004542E-08 -0.44528532E-08
 -0.29213876E-06 -0.96434831E-05  0.15675802E-05 -0.77900093E-07  0.16877108E-05
  0.62710030E-08 -0.19784016E-06  0.73482459E-07  0.17751424E-06  0.15979029E-05
 -0.19012081E-05 -0.55821839E-06  0.19386726E-06 -0.74203541E-07  0.14405666E-06
  0.60702925E-06 -0.40260163E-06 -0.14586726E-06  0.18331983E-05 -0.34028092E-05
 -0.16879800E-06  0.54185371E-06 -0.71601604E-06 -0.13938972E-07  0.22189781E-06
  0.67842466E-06 -0.12085048E-05  0.41841872E-06 -0.10236041E-05  0.72819538E-07
 -0.10191872E-06 -0.28706969E-06  0.12977847E-06 -0.27047346E-06  0.43651877E-06
 -0.38350100E-06  0.13186057E-05 -0.32358320E-05 -0.21917553E-06 -0.52641105E-06
  0.47968592E-06  0.49895788E-06 -0.55119800E-06 -0.44679661E-06 -0.37283641E-06
  0.85358616E-07 -0.24440753E-05  0.48174098E-06  0.30868341E-06 -0.94491317E-06
  0.29189813E-06  0.81894524E-06 -0.13706825E-06  0.41111747E-06  0.17625359E-05
 -0.37585303E-05  0.40793777E-06  0.16173352E-06 -0.79645338E-06  0.59406700E-06
 -0.12875473E-06  0.17596275E-06  0.66432102E-06  0.10495168E-05 -0.24277637E-05
 -0.40213532E-06 -0.38082113E-06 -0.71732450E-06 -0.12639311E-07  0.24106472E-06
  0.10098128E-06 -0.66173655E-06  0.87298924E-06 -0.31800151E-05 -0.61994838E-06
 -0.43164890E-06  0.15859549E-06  0.67507375E-06  0.58460400E-06 -0.48437642E-06
  0.12138510E-06  0.16780365E-06 -0.17609828E-05  0.45361959E-06 -0.10728924E-07
  0.37549274E-06  0.24550625E-06 -0.57458417E-06  0.74186677E-06 -0.94632027E-06

  0.30536894E-08 -0.88198695E-08  0.94484103E-11  0.64333426E-09  0.37503041E-09
 -0.18089507E-08 -0.12665428E-09  0.60926792E-09  0.71356603E-09  0.76688002E-09
 -0.55772480E-08  0.63545311E-07 -0.38593290E-09  0.33348556E-09  0.82297719E-09
 -0.20230549E-09 -0.16764663E-09 -0.42579028E-09 -0.57049047E-09 -0.79274967E-08
  0.26753531E-08  0.33264879E-09 -0.39699279E-09 -0.44084940E-09  0.17600444E-09
 -0.12684757E-09  0.40794039E-09 -0.70168065E-09 -0.80480085E-08  0.21819641E-10
 -0.29537908E-09  0.37026415E-11  0.21655822E-09  0.41078200E-09  0.21859536E-09
  0.16042813E-10 -0.12291623E-08 -0.67309496E-08  0.20060245E-08 -0.26698134E-09
  0.10390499E-09  0.28968941E-09 -0.51875324E-09 -0.13125416E-09  0.12172534E-08
 -0.17873306E-08 -0.61563783E-08 -0.88968223E-09  0.88831988E-09 -0.60166859E-10
 -0.27933673E-08  0.45756040E-09  0.10531159E-08 -0.10063366E-09 -0.16477435E-08
 -0.71417503E-08  0.92880288E-09 -0.53922473E-10  0.10235003E-09  0.86294896E-09
  0.18694756E-09  0.28311461E-10 -0.45742566E-09 -0.99555021E-09 -0.59167986E-08
  0.95263077E-09  0.27043654E-09 -0.89651359E-10 -0.10769008E-08 -0.29112838E-09
  0.14323901E-09 -0.25305644E-10 -0.28194062E-09 -0.70784204E-08 -0.38587476E-08
 -0.20133464E-09 -0.32203155E-09  0.12504083E-09 -0.33982801E-09  0.50867931E-09
 -0.73647192E-09  0.51551496E-09 -0.55371104E-08 -0.25720734E-08  0.35476298E-10
  0.88554491E-10  0.24131332E-10  0.11855306E-09 -0.28686387E-09 -0.15108327E-09
 -0.20722726E-08 -0.92152265E-08  0.13097440E-08 -0.92995279E-10  0.61889723E-10
 -0.32240202E-09  0.48968374E-09  0.43901393E-09 -0.28702802E-09 -0.13836867E-08
 -0.69030408E-08 -0.93355564E-09  0.61166720E-09 -0.67572844E-09  0.29017725E-09
  0.46587423E-09  0.34261570E-09 -0.42613048E-09  0.16237264E-08 -0.88214398E-08
  0.87512833E-09  0.32297988E-09  0.29512145E-09 -0.53115804E-09 -0.46445723E-09
 -0.91528864E-10 -0.24274845E-10 -0.79093070E-10 -0.58217672E-08  0.28628421E-09
 -0.38202855E-09  0.31146951E-09  0.77267317E-09  0.30246250E-09 -0.21960428E-08
 -0.75760859E-09 -0.39892686E-09 -0.10860530E-07  0.15651652E-08 -0.11536275E-10
 -0.27418695E-09  0.22713868E-08 -0.31446554E-09 -0.49874102E-09 -0.81319746E-10
 -0.54943185E-07 -0.27428585E-07 -0.35591185E-07  0.89286875E-07  0.23133586E-07
 -0.14303915E-06  0.32141485E-07  0.58378393E-07  0.24909325E-07 -0.36684672E-07
 -0.30836760E-07  0.74542632E-07 -0.83088903E-07 -0.13768082E-07  0.33567819E-07
  0.80996070E-07  0.64851012E-07 -0.47769983E-09 -0.29442383E-07 -0.44664308E-08
 -0.12330959E-06  0.54915744E-07 -0.57856198E-07 -0.38331017E-07 -0.32657378E-07
 -0.99812030E-07 -0.81149672E-08  0.80334046E-08  0.19131644E-07  0.57843743E-07
  0.30667409E-08 -0.22676530E-07  0.40248802E-07  0.41463371E-08 -0.23241109E-07
  0.38970435E-07 -0.10261649E-07  0.80400902E-07 -0.20877554E-07 -0.10397094E-07
  0.11386187E-07 -0.47597795E-07 -0.29706667E-07  0.10107613E-07  0.11748125E-06
  0.61712219E-07  0.46749055E-07  0.14410124E-07 -0.34788947E-07  0.55675957E-07
 -0.16707740E-07  0.81238492E-07  0.18633798E-07 -0.98787837E-07  0.39603249E-07
  0.19787094E-07 -0.40460678E-07  0.29531284E-07  0.37397489E-07 -0.40028043E-07
 -0.24352886E-07  0.83264505E-07 -0.34780473E-07 -0.84070811E-07 -0.44628417E-07
  0.94222982E-07 -0.62342591E-07 -0.38713484E-07  0.71482271E-07  0.11048831E-06
 -0.16147282E-07  0.25223885E-07  0.11436575E-07  0.32072796E-07  0.15133714E-06
  0.54628227E-07 -0.41550965E-07  0.16933435E-07 -0.45062761E-07 -0.15649960E-08
  0.33313011E-07  0.56088598E-07  0.19774736E-07 -0.27429808E-07  0.16170149E-06
 -0.28947970E-07 -0.31623335E-07 -0.16363805E-07  0.14105146E-07 -0.60003709E-07

 -0.18779667E-08  0.22302487E-08 -0.15571153E-09  0.91419257E-09  0.20883989E-09
  0.76772602E-09 -0.11017425E-09 -0.30566296E-09 -0.83458492E-10  0.40275248E-09
  0.24081783E-08 -0.38593290E-09  0.38325132E-07 -0.88555181E-08 -0.61089279E-08
 -0.20749124E-08 -0.34991799E-09 -0.26308320E-09 -0.25568238E-08  0.11848455E-08
  0.20737074E-10 -0.94228375E-09  0.11562363E-08  0.11809576E-08 -0.37270095E-09
  0.58694881E-10 -0.25283555E-09  0.29138436E-08  0.18838529E-08  0.22165038E-09
  0.14018311E-09  0.11152499E-08  0.87455676E-09 -0.84964634E-09 -0.25312565E-09
 -0.58951510E-12 -0.15423187E-09  0.27344857E-09 -0.61997595E-09 -0.27751784E-09
  0.83111537E-09  0.84450522E-09  0.94283915E-10 -0.64745845E-09 -0.27556402E-10
 -0.23001252E-08  0.27018496E-08 -0.75932814E-09 -0.52294017E-09  0.75876472E-09
  0.10831610E-08  0.79269279E-10 -0.25124875E-10 -0.26540357E-09  0.26067928E-08
  0.16615761E-08 -0.92448273E-09  0.56012408E-09  0.89736757E-09  0.68261889E-09
 -0.67934669E-09 -0.21158162E-10  0.96991174E-10  0.39812737E-09  0.26463464E-08
 -0.26641029E-09 -0.19353231E-08  0.98089525E-09  0.11240997E-08  0.47552565E-10
  0.24942878E-09  0.67895942E-10 -0.17836700E-08  0.29740409E-08 -0.20685209E-09
 -0.38973042E-09  0.28428900E-09  0.86056214E-09 -0.83873925E-09  0.58652425E-09
  0.95564114E-10 -0.76193962E-09  0.44806272E-08 -0.12352966E-08 -0.83292030E-10
  0.83155277E-09  0.44541004E-09 -0.54485477E-09  0.62919050E-09 -0.99433547E-10
 -0.17660295E-08  0.23838859E-08 -0.79064768E-09 -0.34358962E-09  0.10738190E-08
  0.65962485E-09  0.13990067E-09  0.32817362E-09 -0.15431415E-09  0.14060475E-08
  0.26033433E-08 -0.31577954E-09 -0.62189123E-09  0.58809119E-09  0.75469683E-09
  0.51744278E-10 -0.23737703E-09  0.32180610E-10  0.11676047E-08  0.26701863E-08
  0.77570344E-09 -0.12682570E-09  0.82508458E-09  0.64160850E-09 -0.10105056E-08
 -0.39790634E-09  0.25713912E-10 -0.76730488E-09  0.24143928E-08 -0.98829798E-09
 -0.41388438E-09  0.36130803E-09  0.65042527E-09  0.10440424E-09  0.94684824E-09
  0.16733163E-09  0.67233654E-09  0.21320379E-08  0.91290272E-09 -0.62533567E-09
  0.53226852E-09  0.52932015E-09 -0.39536417E-09 -0.10668956E-09 -0.24077669E-09
 -0.63352893E-07 -0.11057134E-07 -0.13755503E-07  0.97507389E-07 -0.88400124E-07
  0.39742858E-07  0.15216815E-07 -0.17710659E-07  0.16550145E-07  0.23523334E-07
 -0.30796971E-07  0.24787907E-08  0.55217915E-09  0.27337509E-07 -0.60546617E-08
 -0.85917462E-08 -0.66640610E-08  0.12855971E-07  0.42177527E-07  0.22466737E-07
 -0.55928043E-08 -0.22354171E-07 -0.81809009E-08  0.63866508E-09  0.15396418E-07
 -0.18934368E-07 -0.10796552E-07 -0.39301821E-08 -0.30036411E-07 -0.20724651E-07
  0.65364779E-07 -0.44891406E-08 -0.17694991E-07 -0.29935050E-07  0.10281412E-07
 -0.30378563E-08 -0.51440844E-07 -0.36390470E-07  0.26260788E-07  0.25381223E-07
  0.36796307E-07 -0.24261238E-07 -0.35485088E-07 -0.59070117E-07  0.21292268E-07
 -0.30522467E-07 -0.23952908E-07 -0.11967520E-07  0.80685624E-07 -0.29161991E-07
 -0.48200557E-08  0.33238777E-07 -0.28217634E-08  0.39850191E-08 -0.22095997E-07
  0.14441451E-07 -0.73695730E-08  0.65764292E-08  0.15226068E-07 -0.80413741E-09
  0.44505643E-08 -0.92896928E-08 -0.21394471E-07  0.61557358E-07  0.62607320E-07
 -0.15424915E-08  0.26815478E-07 -0.27428980E-07  0.41268211E-09  0.70889621E-08
  0.93621452E-08 -0.51436883E-08 -0.28075130E-07 -0.24217100E-07 -0.16536592E-07
  0.55499416E-07 -0.26640034E-07  0.39778305E-07 -0.22873017E-07 -0.84399428E-08
 -0.86535610E-08 -0.54502789E-07  0.22286626E-07 -0.96444428E-08  0.72567034E-07
 -0.38428474E-07  0.32162064E-07 -0.25117637E-07  0.36822873E-09 -0.36142278E-08

  0.27061822E-09 -0.90818360E-08 -0.25735077E-09  0.55949118E-09 -0.68040848E-09
  0.88239764E-09 -0.14475203E-10  0.18209093E-10 -0.42150675E-09  0.70330965E-09
 -0.74146882E-08  0.33348556E-09 -0.88555181E-08  0.37708128E-07 -0.62394577E-08
 -0.23422211E-08 -0.11628256E-08  0.14702242E-08  0.11464986E-08 -0.86777067E-08
  0.34819460E-09  0.12446644E-08 -0.21897907E-08  0.10389054E-08 -0.46894556E-09
 -0.20023664E-09 -0.21501337E-09 -0.57796916E-09 -0.77218912E-08  0.87404719E-09
  0.12303819E-08 -0.65751258E-09  0.79004319E-09 -0.15302781E-10  0.38730309E-09
  0.58938053E-10 -0.82100283E-09 -0.87768577E-08 -0.27917528E-10  0.10544002E-08
 -0.12880637E-08  0.77640128E-09 -0.32417221E-09  0.42193378E-09 -0.12904937E-09
 -0.34717750E-09 -0.94461285E-08 -0.13284096E-08  0.10196540E-08 -0.12211920E-09
  0.45387846E-09 -0.17116721E-09  0.14033022E-09  0.20816219E-09  0.91579346E-10
 -0.84634088E-08  0.61572091E-09  0.11397984E-08 -0.20024719E-08  0.64927150E-09
  0.45655067E-09  0.25008708E-09  0.26164394E-09 -0.18756471E-09 -0.92451322E-08
 -0.92892218E-09  0.11681140E-08 -0.84561571E-09  0.63358876E-09 -0.98808395E-10
 -0.95432327E-10 -0.20627820E-09  0.16832661E-09 -0.67807209E-08  0.43663567E-10
  0.29875266E-09 -0.61958954E-09  0.90363438E-09 -0.46050674E-09 -0.52040015E-10
 -0.67063223E-09  0.20094080E-09 -0.89607747E-08  0.36142906E-09  0.90892472E-09
 -0.59150538E-09  0.94556991E-09 -0.26760582E-09 -0.53385300E-10  0.27054524E-09
  0.86998502E-10 -0.97730172E-08  0.36072881E-09  0.11244827E-08 -0.19539803E-08
  0.13716325E-08 -0.52421559E-09 -0.11755439E-09  0.59369550E-09 -0.36823581E-09
 -0.53246844E-08 -0.62653538E-09  0.49207958E-09 -0.86895717E-09  0.88759418E-09
  0.49672922E-09 -0.18919673E-09 -0.78701483E-09  0.64419595E-09 -0.10966838E-07
 -0.23759087E-10  0.97431188E-09 -0.28895213E-09  0.85646866E-09 -0.42696899E-09
  0.13612052E-09  0.17716590E-09  0.10646235E-08 -0.94622301E-08  0.14101080E-09
  0.73477798E-09  0.96117682E-10  0.85625262E-09 -0.27422569E-09 -0.11258322E-09
 -0.70638127E-09 -0.45681393E-09 -0.10223091E-07  0.17772918E-09  0.99183796E-09
  0.56242037E-09  0.34336205E-09  0.60401655E-09 -0.34933657E-09  0.16728861E-09
  0.84318711E-07  0.19186786E-06 -0.66054626E-07 -0.70843821E-07 -0.97906837E-07
  0.27169105E-07 -0.77399334E-07  0.37726798E-07  0.17666252E-07 -0.24895266E-09
  0.10825030E-07  0.17952300E-08  0.97956798E-08 -0.22731294E-07  0.25457747E-07
 -0.10414540E-07  0.26874448E-07 -0.12621680E-08 -0.43325078E-08  0.41997814E-07
  0.11241921E-07 -0.20900419E-07  0.20043531E-07  0.73974399E-08 -0.12841573E-07
 -0.78329875E-08 -0.32373153E-08 -0.52797977E-08  0.85274799E-08  0.71441529E-08
  0.27722710E-09 -0.32750206E-08  0.79541858E-08 -0.10529319E-07 -0.14783351E-07
 -0.21218510E-07 -0.12674630E-07  0.65524342E-08 -0.97349273E-08  0.51328528E-07
 -0.83418061E-07  0.10728525E-07  0.32843386E-07  0.10957891E-07 -0.13409911E-07
 -0.11393967E-07  0.30419897E-07  0.11326895E-07 -0.43357547E-07  0.62035158E-07
 -0.30989904E-08  0.55824177E-07 -0.93603419E-08  0.18015495E-07  0.13436430E-07
 -0.13751311E-07 -0.18349551E-09  0.21884252E-07 -0.56609630E-07  0.12274584E-07
  0.18140520E-07  0.35380313E-08  0.40213114E-07  0.17931901E-07  0.11489371E-08
 -0.12670256E-07 -0.16316578E-07  0.43970404E-07 -0.57787362E-08 -0.28726184E-07
  0.14907513E-07 -0.43990692E-07  0.29597488E-07 -0.52294239E-07  0.93351934E-08
 -0.69228842E-08 -0.45952694E-07  0.21665398E-07 -0.28003448E-08  0.22116354E-07
 -0.29866192E-07  0.34489761E-07 -0.94974895E-07  0.35140350E-08 -0.23704323E-07
  0.35962461E-07  0.20691936E-07 -0.62158638E-08 -0.10070101E-07 -0.30207965E-07

  0.32869889E-09  0.29977765E-08  0.62142761E-09  0.57045808E-09  0.74427240E-09
 -0.83892291E-09 -0.19504939E-09  0.48440553E-10  0.59645359E-10 -0.55266314E-09
  0.32014676E-08  0.82297719E-09 -0.61089279E-08 -0.62394577E-08  0.18818514E-07
  0.29819280E-09  0.17900686E-08  0.88244582E-09  0.75569340E-09  0.29977131E-08
 -0.25740302E-09  0.11850826E-08  0.82819528E-09 -0.14140121E-08  0.13414409E-09
 -0.14005990E-09  0.23109455E-09 -0.40137308E-09  0.25834380E-08 -0.44799926E-09
  0.59479742E-09  0.73994603E-09 -0.78694493E-09  0.31095824E-10  0.74110199E-10
  0.12518384E-09  0.64840518E-10  0.31995669E-08  0.70483601E-09  0.48580445E-09
  0.65287065E-09 -0.30583275E-09  0.23263340E-09 -0.28736369E-09 -0.35520673E-09
  0.28668085E-09  0.24226661E-08  0.77816268E-09  0.94927635E-09  0.32040181E-09
 -0.10560493E-08 -0.28150111E-10 -0.51180329E-09  0.27054872E-09 -0.53984935E-09
  0.25147936E-08  0.55445521E-09  0.62594143E-09  0.57975793E-09 -0.40921032E-09
  0.43897155E-10  0.52535250E-10 -0.23504932E-09  0.44061735E-10  0.29705430E-08
  0.11180081E-08  0.10001427E-08  0.50868402E-09 -0.73203187E-09 -0.88947099E-10
  0.10399403E-10 -0.58488242E-10  0.41923099E-11  0.25874344E-08 -0.21728383E-08
  0.78353085E-09  0.84739395E-09 -0.10961563E-08  0.34507942E-10 -0.27212873E-11
 -0.64663647E-09 -0.50275801E-09  0.19103501E-08 -0.98446514E-10  0.47647639E-09
  0.63787943E-09 -0.33366505E-09 -0.15875951E-10 -0.27366310E-09  0.28671173E-09
  0.20985280E-10  0.28764259E-08  0.20210494E-09  0.57376440E-09  0.10592583E-08
 -0.99558245E-09  0.69445412E-10  0.93909762E-10  0.70645702E-10  0.11158080E-09
  0.15632291E-08 -0.96112781E-09  0.58684967E-09  0.41130142E-09 -0.63508424E-10
 -0.21279124E-09 -0.10702080E-09 -0.29334862E-09 -0.59488018E-10  0.25660008E-08
  0.46220233E-09  0.61663191E-09  0.64939217E-09 -0.78726515E-09  0.91548689E-10
 -0.25084124E-09 -0.44824521E-11  0.84681313E-10  0.27320227E-08 -0.67489357E-09
  0.53460544E-09  0.63989322E-09  0.25286330E-09 -0.60515022E-10  0.33886008E-10
  0.31724168E-09 -0.20411382E-09  0.23253162E-08 -0.27284036E-09  0.43833649E-09
  0.15707996E-09  0.22539689E-09 -0.21043281E-09  0.21864157E-09 -0.64574097E-10
 -0.39328447E-07 -0.46607890E-07  0.34646221E-07  0.15417560E-07  0.19407189E-07
 -0.42224083E-07  0.12204933E-08 -0.50741930E-07 -0.27953735E-08 -0.81112254E-08
 -0.15732312E-09 -0.11789231E-08 -0.12976388E-07  0.13564122E-07 -0.14661335E-07
  0.70444685E-08 -0.19187657E-07  0.86499101E-08 -0.24614588E-07 -0.37637084E-08
  0.17049807E-07  0.10698099E-07 -0.11044983E-07  0.47844937E-08  0.12637499E-07
  0.14648600E-07  0.71109728E-08 -0.47269685E-09 -0.79121689E-08  0.19311488E-07
 -0.19040981E-07  0.12109998E-07  0.11616217E-07  0.56334219E-08 -0.82443590E-08
 -0.38152712E-09  0.12337603E-07  0.73202632E-08 -0.29161641E-07 -0.31254505E-07
  0.11476164E-07  0.49481298E-07  0.15104399E-07  0.11042777E-08 -0.11767275E-07
  0.23112704E-07 -0.14368118E-08 -0.39127272E-07 -0.21006775E-08 -0.22741185E-08
  0.14523207E-08 -0.12926545E-07  0.54402522E-08  0.19141223E-08 -0.10473821E-07
 -0.64800317E-08  0.32227174E-07 -0.79455325E-08  0.10309726E-07 -0.74283113E-08
  0.10632582E-08  0.22815738E-07 -0.11687697E-07 -0.41153954E-07  0.28865999E-08
  0.10072287E-07 -0.99170393E-08 -0.20614227E-07  0.20733015E-07  0.48012873E-08
 -0.10468517E-07 -0.61108837E-08 -0.98174120E-08  0.12808043E-07 -0.20162031E-07
 -0.13724633E-09 -0.37008198E-08  0.32025904E-07  0.11226902E-07 -0.29191311E-07
 -0.29572098E-08 -0.25904215E-08  0.38942837E-08  0.64745698E-08  0.19341401E-07
  0.79295167E-08 -0.59685715E-07  0.54540757E-08  0.12400274E-07  0.85778467E-08

  0.37895935E-09 -0.38470129E-08  0.13729491E-09 -0.30992711E-09  0.17322100E-09
 -0.57848016E-10 -0.13500222E-09 -0.18691227E-10 -0.43411171E-09 -0.18500532E-08
 -0.21612781E-08 -0.20230549E-09 -0.20749124E-08 -0.23422211E-08  0.29819280E-09
  0.21461156E-07  0.86924010E-09 -0.74724850E-09  0.10801972E-08 -0.27862211E-08
  0.51522998E-10 -0.30491756E-09 -0.11129288E-09 -0.22692197E-10  0.32963926E-09
  0.21407975E-09  0.35522188E-10 -0.59780178E-09 -0.36414091E-08  0.30758896E-09
 -0.82952501E-09 -0.23310302E-09  0.31910079E-09 -0.30611888E-09  0.12740715E-09
  0.99165917E-11  0.49841509E-09 -0.42394204E-08 -0.16643515E-09  0.22426699E-09
 -0.74390678E-09 -0.20173683E-09 -0.47301981E-09 -0.11017373E-09  0.68357980E-09
 -0.98445423E-09 -0.28893308E-08  0.46004116E-10 -0.27903636E-09 -0.39831716E-09
  0.10132509E-09 -0.42146159E-09 -0.31403400E-10  0.36956262E-09  0.14189036E-09
 -0.24353217E-08  0.64591483E-09 -0.10805519E-09  0.52206138E-10  0.18147014E-10
 -0.68911980E-11  0.11941493E-10  0.54181027E-09 -0.37886247E-09 -0.45480230E-08
  0.42144290E-10  0.58170104E-09 -0.20343665E-09 -0.14689652E-09 -0.46645317E-09
  0.67896866E-10  0.19670380E-09  0.60758719E-09 -0.40909190E-08  0.59298132E-09
  0.27846400E-09  0.19008796E-09 -0.89223906E-10  0.10844738E-09 -0.14943586E-09
  0.48193253E-09  0.17113317E-08 -0.18180640E-08 -0.12260914E-09 -0.10104118E-08
  0.20069923E-10  0.64658123E-10  0.75223126E-09 -0.29377345E-10  0.21351574E-09
 -0.10685758E-08 -0.39768667E-08  0.75615156E-09  0.24093602E-09 -0.49535666E-09
  0.28326372E-10 -0.15680652E-09  0.54133221E-09  0.30930803E-09  0.77293000E-09
 -0.39900084E-08  0.13295807E-09 -0.17106519E-10  0.38528607E-09 -0.27347199E-09
 -0.48405879E-09 -0.10873539E-09  0.16557175E-09  0.65856350E-09 -0.32482773E-08
 -0.14748028E-09 -0.69286328E-09  0.37720687E-09 -0.48785738E-10 -0.39831884E-09
  0.11931784E-09  0.10332923E-09 -0.17663532E-08 -0.39929178E-08  0.11698449E-08
 -0.10047488E-08 -0.53352357E-09  0.26181636E-09 -0.36546484E-09 -0.23671475E-09
  0.11922450E-09  0.83312526E-09 -0.45929904E-08 -0.60236804E-09  0.10056650E-08
  0.53150087E-09 -0.67015544E-09 -0.27723695E-10  0.27970506E-09 -0.10366847E-10
  0.16725192E-07  0.41378885E-07 -0.24772409E-07  0.52000414E-07 -0.44564027E-07
 -0.83488298E-08 -0.51274900E-07 -0.29072147E-08  0.39805294E-07  0.20572464E-08
  0.14870997E-07 -0.21833843E-08 -0.12166332E-07  0.13755161E-07 -0.13585449E-07
 -0.49060757E-08 -0.24410272E-07  0.17366131E-07  0.22947504E-07  0.23958101E-08
  0.22212197E-07  0.52297367E-07  0.15921061E-07 -0.58815220E-08  0.14316171E-08
 -0.10977848E-08  0.29724196E-08 -0.14869267E-07  0.33985081E-07 -0.92509883E-08
 -0.44162248E-07 -0.30073440E-07  0.11941888E-07  0.34121756E-07  0.24844868E-07
  0.14379958E-07  0.10259949E-07 -0.10463848E-07 -0.98561977E-08 -0.61109221E-07
  0.59269094E-08  0.26893769E-07 -0.35007524E-09  0.84421759E-08 -0.89105294E-08
 -0.26524634E-08  0.14554398E-07  0.28081286E-08 -0.53364568E-07 -0.11340047E-07
  0.92085140E-08  0.20661026E-08  0.68312119E-09 -0.34483361E-07  0.34918454E-07
 -0.99727806E-09  0.13355647E-07 -0.18107544E-07  0.35909512E-07  0.97144628E-08
  0.97887561E-08  0.81286468E-10  0.27941865E-08  0.25809639E-07 -0.69037095E-08
 -0.56081527E-08 -0.45547468E-07 -0.96036010E-08  0.28871023E-08 -0.23878991E-08
 -0.86277257E-08  0.60166181E-08 -0.36031842E-08 -0.32062040E-07  0.18604059E-08
 -0.36544924E-07 -0.59828765E-08 -0.12821326E-07 -0.15067768E-08 -0.14086004E-07
  0.31553265E-07 -0.41750092E-07 -0.45002350E-08 -0.16008383E-07 -0.89307971E-08
 -0.14660379E-07  0.21293776E-08 -0.19503955E-07 -0.33476428E-07  0.26422344E-07

 -0.12898024E-09  0.21408072E-08 -0.20778303E-09 -0.10714657E-09  0.53081388E-10
  0.58277151E-11 -0.32155258E-09 -0.70489247E-09 -0.46403122E-10  0.31375843E-10
  0.20774217E-08 -0.16764663E-09 -0.34991799E-09 -0.11628256E-08  0.17900686E-08
  0.86924010E-09  0.15994761E-07 -0.95939172E-09 -0.31412295E-09  0.20930712E-08
  0.61612710E-10  0.15136419E-09 -0.79133548E-10 -0.14649264E-09 -0.15541596E-09
 -0.53777277E-09 -0.36366435E-10  0.11055220E-09  0.15752457E-08  0.14932667E-09
 -0.16247857E-09  0.23517042E-09  0.74728175E-10 -0.13123863E-09 -0.44774196E-09
 -0.14179934E-09 -0.10298504E-09  0.19641565E-08  0.19235341E-09 -0.28523186E-09
  0.17009430E-09 -0.38191005E-09 -0.54195057E-10 -0.43436201E-09  0.17486528E-09
 -0.75786042E-09  0.25883904E-08 -0.62572118E-09  0.18442506E-09  0.10479699E-09
 -0.53046109E-09  0.97503425E-10 -0.80149744E-09  0.86371209E-10 -0.56865132E-09
  0.20896818E-08  0.23149397E-09 -0.62331371E-10  0.83701916E-10  0.42299046E-10
  0.18059888E-09  0.12229052E-09 -0.20108619E-09  0.48990138E-09  0.16615504E-08
  0.16877503E-09  0.29767926E-09 -0.16431864E-10 -0.32659523E-10 -0.92116768E-10
 -0.48581988E-09 -0.14980574E-10 -0.13614355E-08  0.18347387E-08 -0.16493445E-09
  0.65573726E-09 -0.95725672E-10  0.98564566E-11 -0.58435906E-09 -0.73046111E-09
 -0.31826277E-09 -0.85336752E-09  0.14826635E-08 -0.60799279E-09  0.49607842E-09
  0.18995607E-10 -0.29492620E-09 -0.26203042E-10 -0.82488787E-09 -0.32382315E-09
 -0.58637365E-09  0.21287524E-08 -0.69212023E-09  0.50453528E-09 -0.25012723E-10
  0.11031597E-09  0.17427139E-09 -0.78943121E-09  0.15911569E-09 -0.63884363E-09
  0.19192586E-08  0.74986218E-09 -0.43608061E-10 -0.21105215E-10 -0.17069981E-09
 -0.49801985E-09 -0.43456257E-09 -0.12525569E-09  0.93958012E-09  0.16946512E-08
  0.49377868E-09 -0.29799883E-09  0.21758186E-09 -0.28008023E-09 -0.35024338E-10
 -0.88773717E-09 -0.85015764E-10 -0.12518998E-08  0.18130924E-08  0.31634657E-09
  0.59209915E-09 -0.63836906E-10  0.17047781E-09  0.12628773E-09 -0.11027848E-09
 -0.10444093E-09  0.51752277E-09  0.15712125E-08 -0.41560129E-10 -0.22197011E-10
 -0.22039234E-09  0.27761621E-09 -0.13568827E-09 -0.58415427E-09 -0.27840809E-09
 -0.11001440E-07 -0.27816065E-07 -0.41242898E-07  0.13014555E-07  0.37153329E-07
 -0.87649881E-07  0.12700868E-07  0.57750432E-07 -0.16354113E-07 -0.48312263E-08
  0.13558794E-07 -0.66028329E-08 -0.17787078E-07 -0.56662213E-08 -0.31003729E-09
  0.11487998E-07 -0.25559720E-07 -0.49197568E-08 -0.37305229E-08  0.69296606E-08
 -0.15409171E-07 -0.16957137E-07 -0.60088426E-10  0.20616494E-07 -0.66970418E-08
  0.15257792E-07 -0.18612902E-08 -0.13834388E-07  0.17965315E-07 -0.20246019E-08
  0.14769219E-07 -0.11741323E-07 -0.72446581E-08 -0.37576869E-08  0.15923565E-07
 -0.15605779E-08  0.15186791E-07 -0.75817984E-08 -0.96780966E-08 -0.42227023E-07
  0.83494568E-08 -0.78637446E-08 -0.73657124E-08  0.25332374E-08  0.66665665E-08
 -0.32320643E-07 -0.13035138E-07  0.13933969E-07 -0.84881476E-08 -0.73969937E-08
  0.16410956E-07  0.12648201E-07  0.12889329E-07  0.15033679E-07  0.74702981E-08
 -0.34432536E-08 -0.11768079E-07  0.52142309E-08 -0.50651568E-08  0.30800459E-07
 -0.17655159E-07 -0.10929405E-07 -0.52589516E-08 -0.19598448E-07 -0.81038601E-08
 -0.24021298E-07  0.19158181E-07  0.35068026E-09 -0.11099584E-07 -0.43619061E-07
  0.11650044E-07 -0.92667695E-08 -0.10488272E-07  0.69994062E-08 -0.18539894E-07
 -0.76012738E-08 -0.11172188E-08 -0.42982452E-07 -0.33197489E-08  0.54148908E-07
  0.92995873E-08 -0.18541131E-07 -0.14107755E-07 -0.25963846E-08 -0.24095579E-08
 -0.49768685E-08  0.10526094E-07 -0.46819867E-08  0.19448418E-08  0.51532566E-09

  0.20979882E-09  0.18534964E-08  0.87635475E-10  0.29578568E-09 -0.63220035E-10
 -0.32158566E-09 -0.44582866E-09  0.39533686E-10 -0.40013815E-09 -0.21843435E-09
  0.19556009E-08 -0.42579028E-09 -0.26308320E-09  0.14702242E-08  0.88244582E-09
 -0.74724850E-09 -0.95939172E-09  0.15413447E-07  0.33146593E-09  0.20397354E-08
  0.29034690E-09  0.28231963E-09 -0.25967203E-09  0.97996463E-10 -0.12362856E-10
  0.53037047E-10 -0.10627361E-09 -0.12060048E-09  0.25972078E-08  0.43005334E-09
  0.23035905E-09 -0.34646904E-10 -0.21842155E-09  0.92638360E-10  0.87254443E-10
  0.24152835E-09 -0.17228379E-09  0.29236652E-08  0.66780959E-09  0.20027359E-09
  0.83253979E-12 -0.37666969E-09  0.37718392E-09 -0.27776525E-09 -0.29020225E-10
 -0.56164440E-10  0.12521295E-08 -0.36194581E-09 -0.13129598E-10 -0.22650027E-09
 -0.51255944E-10  0.36692315E-09  0.18947387E-10  0.10371377E-11  0.37021080E-09
  0.21311303E-08  0.17420547E-09 -0.11251838E-09  0.10358866E-09  0.10949101E-09
  0.50011590E-09  0.91149687E-10 -0.11021048E-09  0.19721981E-10  0.15282561E-08
  0.78447642E-09  0.11825813E-09  0.73179723E-10 -0.21015337E-10  0.10509012E-09
 -0.23812721E-10  0.14440122E-09  0.17093797E-09  0.14847835E-08 -0.10453556E-08
 -0.29776829E-09  0.88228362E-10  0.30185499E-09  0.42245131E-09  0.17729603E-09
  0.65701998E-10 -0.35634493E-09  0.20699554E-08 -0.12551398E-08 -0.56866606E-10
  0.21749400E-09  0.87888253E-10  0.18690295E-09 -0.31849028E-09  0.87564062E-09
  0.88629039E-09  0.31609036E-08  0.30906340E-09  0.17360805E-09  0.30028990E-09
  0.19078826E-09  0.19098956E-09  0.57131158E-11  0.23503168E-10  0.90364514E-10
  0.26509971E-09 -0.72695613E-09 -0.17798628E-09 -0.13464496E-09  0.58596122E-09
  0.20533822E-09 -0.34437107E-10 -0.46149849E-09 -0.20609537E-09  0.16837800E-08
 -0.51325561E-10 -0.33284130E-11 -0.30953458E-10  0.27033011E-09 -0.30174942E-10
  0.74001606E-10  0.33455795E-09  0.11502229E-08  0.43547303E-08 -0.60335720E-09
 -0.76809461E-10 -0.44761598E-09  0.22538953E-09  0.19878513E-09 -0.31240288E-10
 -0.23357142E-09 -0.46867001E-09  0.24623201E-08  0.19601027E-09  0.15079376E-09
  0.49920083E-09 -0.16886962E-09 -0.68272188E-10 -0.10065746E-09 -0.96731246E-10
 -0.10004370E-07  0.28099926E-08  0.11528837E-07 -0.90293671E-08 -0.86795825E-08
  0.49152626E-08  0.21337494E-07 -0.76802501E-08 -0.50729543E-08  0.75959365E-08
 -0.18043285E-07 -0.34977055E-08 -0.23498024E-07  0.27162222E-07 -0.10791677E-07
  0.11712485E-07 -0.15793380E-07  0.59323055E-08  0.95582645E-08 -0.53112440E-08
 -0.73499106E-08 -0.67360154E-08  0.20346236E-08 -0.79242941E-08  0.78000307E-08
  0.10215065E-07  0.32075146E-07 -0.66928194E-08  0.12199134E-07 -0.33278713E-08
  0.58289419E-08  0.25729276E-07 -0.36085927E-08  0.11087429E-07 -0.97772194E-08
  0.88106467E-09  0.15021986E-08 -0.22575263E-07  0.25379212E-07  0.22277049E-07
 -0.10337702E-07 -0.23287117E-07 -0.26855340E-08 -0.57424754E-09  0.24250786E-07
  0.36047646E-08  0.11755622E-07  0.65116202E-08 -0.54961604E-08 -0.21397744E-07
  0.19064100E-07 -0.36100520E-07 -0.72492215E-08  0.85024976E-08  0.11153382E-07
  0.21121392E-08  0.14617044E-09 -0.41020805E-08  0.13014803E-07 -0.18942466E-07
  0.75355582E-09  0.87526629E-08 -0.48997021E-08  0.38385941E-08 -0.13014538E-07
  0.18036956E-07  0.10200418E-08  0.31290975E-07 -0.15952007E-07  0.58727693E-08
 -0.16300178E-07 -0.21495208E-07  0.12519326E-07  0.20687228E-09  0.12574140E-07
 -0.10689928E-07 -0.58271776E-08  0.12033311E-07  0.18268343E-07 -0.20140636E-07
 -0.57130919E-08 -0.13999665E-07 -0.19022240E-08 -0.35776653E-07 -0.65762612E-08
 -0.20993916E-07 -0.10957494E-07  0.24512352E-07  0.11930629E-07  0.12948494E-07

  0.17230552E-08 -0.21536435E-08 -0.31347727E-09 -0.63988159E-10  0.13423830E-10
  0.15253041E-09 -0.51862039E-09 -0.11394258E-08  0.31449328E-09  0.93833057E-09
 -0.99018566E-09 -0.57049047E-09 -0.25568238E-08  0.11464986E-08  0.75569340E-09
  0.10801972E-08 -0.31412295E-09  0.33146593E-09  0.89618227E-07 -0.16015937E-08
  0.32957710E-10  0.27602747E-08 -0.39426346E-09 -0.18302461E-09 -0.23478758E-08
  0.45385652E-09 -0.19380113E-09  0.19573884E-08 -0.14648656E-08  0.15991126E-08
 -0.38413911E-09 -0.33754210E-09  0.11726203E-08  0.10770439E-08  0.12205713E-09
 -0.12149378E-11  0.16242703E-08 -0.24045512E-08  0.10573638E-08 -0.10522107E-08
  0.16117490E-09 -0.32416567E-09 -0.24115594E-09  0.10483260E-08  0.10715744E-08
 -0.46388763E-08 -0.33788601E-09  0.31741874E-09 -0.18280186E-08  0.96526559E-09
  0.93375060E-10  0.32959280E-09  0.34365019E-09 -0.52123927E-09  0.18005276E-08
 -0.29749327E-08  0.10417843E-08 -0.15223106E-08 -0.50603303E-09  0.94455537E-09
 -0.16905172E-08  0.19953897E-09 -0.34648297E-09  0.19143033E-08 -0.22381637E-08
  0.23756170E-08  0.75503054E-09  0.58258279E-09  0.14286305E-10  0.13383029E-10
  0.67239668E-09 -0.89011041E-10  0.27038328E-08 -0.17774763E-08  0.27728599E-09
  0.20908866E-09 -0.45627683E-11  0.26917423E-09 -0.87053661E-09 -0.13089019E-08
 -0.60665266E-09  0.27545978E-08 -0.25152640E-08  0.14572363E-08  0.65382977E-09
  0.24132805E-09 -0.15612340E-11  0.37760336E-09 -0.66621500E-09  0.25078377E-09
  0.67414416E-08 -0.39040401E-08 -0.79524976E-10 -0.10567648E-08 -0.94088874E-10
 -0.46003931E-09  0.91342667E-09 -0.10817651E-09  0.56426021E-09 -0.38257551E-08
 -0.48244487E-08 -0.21912421E-08 -0.27736323E-11  0.20325021E-09 -0.43973169E-09
 -0.97588094E-09  0.70124792E-09 -0.59955405E-09 -0.19110001E-08 -0.12191669E-08
  0.95143446E-09 -0.37454309E-08  0.11567784E-08  0.17069987E-08  0.15214342E-08
  0.11160285E-08 -0.15915198E-09  0.11553046E-08  0.84007823E-10  0.23527649E-10
 -0.67235530E-10 -0.50729022E-09  0.79261466E-09 -0.22730654E-09  0.49851351E-10
  0.63923751E-09  0.22414155E-08 -0.24843644E-08 -0.87372547E-09  0.29156892E-08
  0.17711287E-09  0.18203922E-09 -0.70328850E-10 -0.44907509E-09 -0.46388279E-09
  0.11943939E-06  0.84720272E-07 -0.13977146E-06 -0.27504015E-06  0.28550407E-06
 -0.75073065E-07  0.76124412E-07 -0.11454540E-06 -0.33638623E-07 -0.19148754E-06
  0.78041838E-07 -0.21513077E-07  0.53097651E-07 -0.36520976E-07  0.30216114E-07
 -0.82908167E-07  0.18409803E-07  0.12688257E-07 -0.13809581E-06  0.33490646E-07
  0.44557189E-07  0.71547664E-07 -0.66186002E-07 -0.12692748E-07 -0.12689797E-07
 -0.16241701E-07 -0.28498421E-07 -0.18944169E-06  0.87665996E-07 -0.13518223E-07
 -0.36667111E-07  0.50136096E-07  0.36239644E-08 -0.14730587E-09  0.43323281E-07
 -0.39366238E-07  0.19998597E-07  0.25914332E-08 -0.15633281E-07 -0.69277429E-07
  0.17018650E-08  0.33964045E-07  0.15505574E-07  0.55315397E-09 -0.22146094E-07
 -0.18776627E-07  0.25815119E-07 -0.32227411E-07 -0.11462432E-06 -0.55455517E-07
  0.42388709E-07  0.61100993E-07 -0.72013044E-07  0.21233025E-07  0.25050694E-06
 -0.14233326E-06 -0.23579190E-07 -0.13343511E-06  0.29970713E-07  0.15226118E-07
  0.63203664E-07  0.65108917E-07  0.17922295E-07  0.34756161E-07 -0.10674166E-06
 -0.29322312E-07 -0.12752768E-07  0.25060118E-08  0.24192428E-07 -0.21840297E-07
  0.87215547E-07 -0.34935111E-08  0.86234761E-08 -0.64707531E-07  0.39441739E-07
 -0.79307132E-07 -0.48246978E-07 -0.36854516E-07 -0.19869815E-07  0.29370129E-07
  0.73441753E-08 -0.10758346E-06  0.32263716E-07 -0.22045122E-07 -0.99755743E-07
  0.78882450E-07 -0.37991909E-07 -0.39487278E-07 -0.53159042E-07  0.97067525E-07

 -0.18203027E-09  0.22109788E-05 -0.27966871E-08  0.46745730E-08 -0.31149214E-09
  0.37261565E-08 -0.50280268E-08 -0.17834043E-08 -0.38876234E-08  0.17839935E-08
  0.21995546E-05 -0.79274967E-08  0.11848455E-08 -0.86777067E-08  0.29977131E-08
 -0.27862211E-08  0.20930712E-08  0.20397354E-08 -0.16015937E-08  0.22923091E-05
  0.29924803E-08  0.37077377E-08  0.90555653E-08  0.28332802E-09  0.50250467E-08
  0.14158046E-08  0.48411829E-09  0.54613036E-08  0.21958751E-05  0.38927560E-08
  0.11409977E-08  0.43410769E-08  0.68064468E-09  0.43969585E-08  0.16106423E-08
  0.18682419E-08 -0.54487906E-08  0.21873238E-05  0.10964889E-07  0.25369303E-08
 -0.28077397E-08  0.54725841E-09 -0.55242857E-09  0.21490438E-08  0.33461225E-09
 -0.34083040E-08  0.21810483E-05  0.10769220E-08  0.26818142E-08  0.24958542E-08
  0.96300209E-09 -0.43212299E-10 -0.28909305E-08  0.54118067E-08  0.74348572E-08
  0.21655202E-05 -0.12392325E-08 -0.95178516E-09 -0.18028158E-08  0.16988321E-08
 -0.20489963E-08 -0.13656866E-08  0.30099962E-08  0.45545835E-08  0.21966386E-05
  0.92137797E-08 -0.49381305E-08  0.10182918E-07  0.77048662E-09 -0.25209205E-08
 -0.43158316E-09 -0.41260803E-09 -0.12377482E-07  0.21701626E-05 -0.11766654E-07
  0.44116001E-08 -0.30756256E-08  0.11413756E-08 -0.16817643E-08 -0.27200982E-09
  0.98917835E-09  0.83284518E-08  0.21836472E-05 -0.26205987E-08  0.54201406E-08
 -0.26646673E-08 -0.19182942E-08  0.49248570E-08 -0.40326459E-09 -0.12606015E-08
 -0.15586918E-08  0.22177483E-05  0.11053775E-07 -0.10712041E-08  0.97621634E-09
  0.30112684E-08 -0.35777718E-08  0.94470238E-09 -0.85479805E-09  0.13140646E-07
  0.21906177E-05 -0.77326322E-09 -0.27912784E-08  0.10956421E-07  0.15008974E-08
 -0.20318258E-08 -0.22760546E-08  0.40525417E-08  0.28152133E-08  0.21898156E-05
  0.10050000E-08  0.63870451E-08 -0.98103717E-08 -0.79288475E-10 -0.32473602E-08
  0.10437740E-08 -0.19487652E-08  0.45062554E-09  0.22007760E-05 -0.58799587E-09
  0.43485762E-08  0.34128595E-09  0.19594101E-08 -0.38407966E-09 -0.15416306E-08
  0.43924751E-08  0.42291322E-08  0.22006908E-05 -0.57355211E-08  0.20328307E-08
 -0.33195987E-08  0.22114825E-08 -0.12562272E-08 -0.93055872E-09 -0.40951219E-08
 -0.36605411E-06 -0.97708349E-05  0.15673524E-05 -0.68449596E-07  0.20830515E-05
 -0.18183194E-06  0.59261120E-06 -0.17892078E-06 -0.63798828E-07  0.16632111E-05
 -0.20865663E-05 -0.63174450E-06  0.17685202E-06  0.12542191E-06  0.11822511E-06
  0.47108970E-06 -0.48343439E-06 -0.85052128E-07  0.19771558E-05 -0.36540053E-05
 -0.12022649E-06  0.45150656E-06 -0.49988823E-06 -0.69532123E-07  0.10061810E-07
  0.68764036E-06 -0.12907272E-05  0.45472736E-06 -0.67373479E-06  0.66771965E-07
 -0.79772599E-07 -0.62003226E-06  0.13415762E-06 -0.18256905E-06  0.39656424E-06
 -0.36028329E-06  0.14511425E-05 -0.32907351E-05 -0.12941944E-06 -0.50874794E-06
  0.32127899E-06  0.52075811E-06 -0.45295186E-06 -0.36453832E-06 -0.31522233E-06
  0.10761593E-06 -0.23513306E-05  0.52221850E-06  0.30678137E-06 -0.87877968E-06
  0.25573947E-06  0.87084748E-06 -0.17220880E-06  0.38433505E-06  0.18458016E-05
 -0.37223424E-05  0.50895293E-06  0.95096142E-07 -0.95665463E-06  0.64768064E-06
 -0.95315236E-07  0.12941403E-06  0.59691328E-06  0.11166476E-05 -0.24490494E-05
 -0.46406849E-06 -0.25468826E-06 -0.84677681E-06 -0.73345853E-07  0.10565808E-06
  0.10146991E-06 -0.62393469E-06  0.85892800E-06 -0.32342129E-05 -0.60833601E-06
 -0.35098696E-06  0.20539824E-06  0.65369139E-06  0.52749201E-06 -0.50437397E-06
  0.28698960E-06  0.95398614E-07 -0.17498951E-05  0.46013594E-06 -0.55602970E-07
  0.60517499E-06  0.30019735E-06 -0.74977217E-06  0.82822011E-06 -0.98721283E-06

 -0.96859966E-10  0.44774527E-08 -0.28839241E-09 -0.19374126E-09 -0.57600562E-09
 -0.17314977E-09  0.34071204E-09 -0.26727592E-09  0.69224825E-09 -0.12635436E-08
  0.49995996E-08  0.26753531E-08  0.20737074E-10  0.34819460E-09 -0.25740302E-09
  0.51522998E-10  0.61612710E-10  0.29034690E-09  0.32957710E-10  0.29924803E-08
  0.62067905E-07  0.71694449E-09  0.48182099E-10 -0.38134341E-09  0.40481070E-10
  0.55278980E-09 -0.81302518E-09  0.11941954E-08  0.59851560E-08 -0.16207085E-08
  0.31657852E-09  0.46090613E-09 -0.10338428E-08  0.21714688E-10  0.33542204E-09
 -0.79114076E-09  0.71021672E-09  0.60770475E-08 -0.55967272E-09  0.18836034E-09
 -0.25269917E-10  0.15743384E-08  0.64193659E-09 -0.83306413E-09  0.13653405E-09
 -0.16233499E-09  0.78545577E-08 -0.62731392E-09  0.69051190E-09 -0.16978848E-09
 -0.31487366E-09 -0.39122687E-09 -0.71513225E-09  0.52546774E-09  0.30384906E-09
  0.52497783E-08  0.16512431E-08 -0.41961425E-10 -0.21303107E-09  0.89379523E-09
 -0.31798535E-09  0.82776357E-10 -0.53735656E-09  0.19492145E-08  0.63836491E-08
  0.54860818E-09 -0.57916775E-10  0.69503290E-09  0.56044454E-09 -0.68697831E-10
  0.35996092E-10 -0.11084653E-09 -0.26266009E-09  0.67357340E-08 -0.13069165E-09
 -0.16691489E-09 -0.55493108E-09 -0.71364705E-09 -0.44445800E-09  0.27172701E-09
 -0.10193838E-08  0.13108167E-08  0.47933037E-08  0.27426846E-08 -0.34090180E-09
  0.41707516E-09 -0.10642300E-09  0.19277027E-09 -0.11697337E-09  0.30432919E-09
 -0.24058449E-09  0.55979541E-08  0.26992801E-08 -0.39554093E-09  0.68666700E-09
  0.59943947E-09  0.70966570E-09 -0.16069156E-08 -0.17544717E-09 -0.11457729E-08
  0.68584299E-08 -0.29680719E-08 -0.51870264E-09  0.63325946E-09  0.19404347E-08
 -0.69313169E-09 -0.79831473E-09 -0.50317501E-09  0.47666448E-09  0.67828444E-08
 -0.79961301E-09  0.75782763E-09 -0.54140887E-10 -0.30413055E-09 -0.61367169E-10
  0.14090413E-08 -0.43026440E-09 -0.23343841E-09  0.77732616E-08 -0.19760776E-09
 -0.46376398E-09  0.15937203E-10  0.14843776E-08  0.34862840E-09  0.27304501E-09
 -0.28462557E-09 -0.12384983E-08  0.38406205E-08 -0.27406088E-08  0.11429630E-08
 -0.73343581E-09 -0.18886539E-08 -0.33032047E-09  0.91512888E-09 -0.97642212E-09
 -0.15213221E-06 -0.10904379E-06  0.31355748E-07 -0.12399455E-06 -0.11704416E-06
  0.28031092E-06 -0.27328307E-08 -0.74637899E-07  0.46015177E-07  0.33320220E-08
 -0.45773376E-07 -0.13144993E-07  0.35224797E-07 -0.79482414E-07 -0.11799612E-08
  0.29471832E-07  0.34668275E-07  0.35837820E-07  0.22483448E-07 -0.24380578E-07
 -0.79685328E-07 -0.49551399E-07 -0.68868668E-07  0.12906313E-06 -0.72343708E-08
 -0.17402222E-07  0.96521661E-07 -0.33927076E-07  0.44516407E-07 -0.55511205E-07
  0.36089670E-07 -0.16145293E-07 -0.19811048E-07 -0.29861768E-07 -0.25171883E-07
  0.38025969E-07  0.37381823E-08  0.10972439E-09  0.46425416E-07  0.32498999E-07
 -0.37481502E-07 -0.36728918E-07 -0.23235148E-07 -0.40128463E-08  0.35847905E-07
 -0.14222838E-08  0.42671584E-08  0.61985305E-07 -0.33789081E-07  0.37481292E-07
 -0.21041034E-07  0.23604239E-07  0.30842781E-07 -0.20488038E-07  0.87212375E-08
  0.49626770E-07  0.10236791E-06 -0.26332271E-08 -0.65688650E-07  0.10562558E-06
  0.19762045E-07  0.14837187E-10 -0.42050770E-07 -0.14345673E-07  0.17312802E-07
  0.13402360E-06  0.34230664E-07 -0.29717890E-07  0.50947561E-07  0.37967733E-07
  0.24044107E-07 -0.39834180E-07  0.29754663E-07 -0.60489178E-07  0.40172889E-07
  0.18023342E-07 -0.59485210E-07  0.42363587E-07  0.17016459E-07 -0.45993239E-07
 -0.30081231E-07  0.50010879E-08  0.37452191E-07 -0.70528453E-07 -0.21542475E-07
 -0.48557926E-07  0.37536167E-07  0.10535987E-06 -0.25819563E-07  0.53468321E-08

 -0.11937765E-08  0.18163874E-08  0.44671856E-09 -0.37953004E-09  0.64286025E-09
  0.11577072E-08 -0.27491203E-09 -0.17250140E-09  0.47729942E-10 -0.70186533E-09
  0.59370516E-09  0.33264879E-09 -0.94228375E-09  0.12446644E-08  0.11850826E-08
 -0.30491756E-09  0.15136419E-09  0.28231963E-09  0.27602747E-08  0.37077377E-08
  0.71694449E-09  0.34139321E-07 -0.76429688E-08 -0.59007894E-08 -0.64649728E-09
 -0.13464259E-08  0.17204757E-09 -0.62005246E-09  0.27307027E-08 -0.17087498E-09
 -0.92387123E-09  0.10038902E-08  0.11014637E-08 -0.38547390E-09  0.25209593E-09
  0.11523075E-09  0.17530269E-08  0.22897949E-08  0.57002667E-09 -0.48013763E-09
  0.52196872E-09  0.50555940E-09  0.77428996E-09  0.22436608E-09  0.41744920E-09
  0.34760684E-09  0.16240239E-08 -0.29800994E-09 -0.16328456E-08  0.13844269E-08
  0.10657165E-08 -0.26383317E-09 -0.14586839E-09 -0.20559050E-09  0.38583995E-08
  0.26883536E-08  0.17345626E-09 -0.85390725E-10  0.49389363E-09  0.52176212E-09
 -0.46829035E-09 -0.28698137E-09 -0.16652711E-09  0.13629135E-08  0.93784180E-09
  0.48776507E-09  0.82188440E-09  0.40258394E-09  0.32040135E-09 -0.92427119E-10
  0.34944527E-09 -0.12679126E-10 -0.46353736E-09  0.17965525E-08 -0.32593485E-09
 -0.67071724E-09  0.95399497E-09  0.27651507E-09  0.44949476E-09 -0.24008388E-09
 -0.34230289E-10  0.14056222E-08  0.13944112E-08 -0.10689509E-09 -0.95429435E-09
  0.14558208E-08  0.48145938E-09  0.54250611E-10 -0.35762796E-09  0.47454242E-09
  0.84885919E-09  0.16325262E-08  0.10731236E-08 -0.18821260E-08  0.13983576E-08
  0.53857113E-09 -0.89239356E-09  0.54246907E-09  0.39856775E-09 -0.23694997E-08
  0.18448798E-08 -0.18349943E-11 -0.64644400E-09  0.19537555E-09  0.86653345E-09
 -0.68924439E-09  0.16524246E-09 -0.42041829E-09 -0.19728287E-08  0.29041208E-08
 -0.10126215E-09  0.44740842E-09  0.75630293E-09  0.15198325E-08 -0.44147893E-09
 -0.22917078E-09  0.11281952E-09  0.93975770E-09  0.19426421E-08 -0.81150920E-10
 -0.57503842E-09  0.65912144E-09  0.52179364E-09 -0.38376255E-09  0.80305461E-10
 -0.60732638E-10 -0.11024391E-08  0.13118853E-10  0.48257937E-09 -0.85694004E-09
  0.41695851E-09  0.10709245E-08 -0.14241674E-09  0.31039945E-10  0.86607695E-11
  0.39144405E-07  0.11715966E-07 -0.27204869E-07 -0.14274773E-08 -0.46297969E-07
  0.14136991E-07  0.56895347E-07 -0.42121569E-07 -0.25136261E-07 -0.84403420E-07
 -0.16968827E-07 -0.59940235E-08  0.21497621E-07  0.94811468E-08 -0.11418824E-07
 -0.21752244E-07  0.51326933E-08  0.31324404E-08 -0.28913862E-07 -0.24573149E-07
  0.91859943E-08 -0.23575724E-08 -0.79159687E-08  0.56100752E-08  0.38787652E-09
  0.22997740E-07  0.10146588E-07 -0.19990683E-07  0.19688324E-07  0.12259874E-07
 -0.10195234E-07  0.77397014E-08  0.12825282E-08 -0.32187570E-07 -0.64609405E-08
  0.23448953E-07  0.36967529E-08  0.20187342E-07 -0.16358074E-07 -0.70355444E-08
 -0.98649681E-08  0.28541911E-07 -0.28216348E-07  0.55435129E-07 -0.55429118E-08
  0.33805464E-07  0.16524089E-07 -0.24461997E-07 -0.36558748E-08  0.21268617E-07
 -0.16298681E-07  0.29414142E-07 -0.33013047E-08 -0.12964333E-07  0.45431747E-08
 -0.18390045E-07 -0.12930816E-07  0.29957558E-07 -0.15459266E-07 -0.22683518E-07
 -0.16296689E-07 -0.18976692E-07 -0.52555954E-08 -0.20854156E-07  0.63401695E-08
 -0.27715567E-08  0.64048322E-07 -0.67713553E-08  0.31994190E-08 -0.54633933E-09
  0.16638474E-07 -0.36404091E-08  0.19235490E-07 -0.35803253E-07  0.38625859E-07
 -0.65212009E-07  0.42201132E-08  0.27027091E-07  0.53074449E-08 -0.40423347E-07
  0.13459072E-07 -0.21370655E-07 -0.66374147E-08  0.55526290E-08  0.14181244E-06
  0.44804893E-08 -0.25404717E-07 -0.19022751E-07  0.15314334E-07  0.23373481E-07

  0.70512246E-09  0.95111428E-08 -0.38466706E-09  0.71185976E-09 -0.14706649E-08
  0.10453409E-08  0.12153724E-09 -0.22614381E-09 -0.20575703E-09  0.83055326E-10
  0.98179225E-08 -0.39699279E-09  0.11562363E-08 -0.21897907E-08  0.82819528E-09
 -0.11129288E-09 -0.79133548E-10 -0.25967203E-09 -0.39426346E-09  0.90555653E-08
  0.48182099E-10 -0.76429688E-08  0.31468143E-07 -0.56597897E-08 -0.83557517E-09
 -0.76288044E-09 -0.10588426E-08  0.51180976E-09  0.90437308E-08  0.11798203E-08
  0.10949318E-08 -0.18249094E-08  0.10354778E-08 -0.34742875E-09  0.15941868E-09
  0.48976038E-09 -0.61868577E-09  0.97627895E-08 -0.52259746E-10  0.57356739E-09
 -0.15120280E-09  0.74644452E-09  0.63512148E-10 -0.32818660E-10 -0.78727994E-09
  0.10948002E-09  0.76995408E-08  0.30586772E-09  0.15576228E-08 -0.16466621E-08
  0.59733821E-09 -0.19683190E-09 -0.21135099E-09  0.41311880E-10  0.45358280E-09
  0.11996345E-07  0.77135577E-09  0.72933428E-09  0.98574042E-09  0.27208519E-09
 -0.51298725E-09 -0.74083604E-10  0.39137586E-09 -0.10479577E-08  0.10746320E-07
  0.19166033E-10  0.51496328E-09 -0.12560926E-08  0.76006354E-09 -0.13914274E-09
 -0.11789344E-10 -0.22579787E-09  0.25267147E-09  0.11306661E-07  0.33681598E-09
  0.82824736E-09 -0.16709688E-08  0.68822200E-09  0.90897992E-10 -0.88157347E-10
  0.64839727E-09 -0.53703175E-09  0.95699895E-08 -0.97268233E-10  0.13933426E-08
 -0.14938224E-08  0.69521846E-09 -0.47366128E-09  0.42350255E-09 -0.42486783E-09
  0.10440338E-09  0.89872487E-08 -0.13970187E-08  0.12290775E-08 -0.13731044E-08
  0.73807316E-09 -0.29763150E-09  0.20465816E-09 -0.28589616E-09  0.83705546E-09
  0.11076671E-07  0.26712838E-09  0.33211654E-09 -0.16813964E-08  0.80785652E-09
 -0.52019251E-09  0.35411407E-09 -0.18289207E-09  0.20449565E-09  0.73370897E-08
  0.16031339E-09  0.10532558E-08 -0.17726088E-08  0.64796437E-09 -0.81589524E-09
  0.12051966E-09 -0.24700060E-09  0.80949126E-09  0.75147321E-08  0.10337657E-08
  0.75344587E-09 -0.10680667E-08  0.59530247E-09  0.12858502E-09 -0.15207533E-09
 -0.77399966E-10  0.12966051E-09  0.12333598E-07  0.24948137E-10  0.49924638E-09
 -0.25747878E-09  0.49807368E-09 -0.65460702E-10  0.51600439E-10  0.16219514E-09
 -0.80484258E-07 -0.20955086E-06  0.43604890E-07 -0.47380198E-07 -0.39475104E-08
 -0.10810626E-07 -0.74516452E-07  0.22260696E-07  0.58324272E-07 -0.22482686E-07
  0.59938087E-07 -0.18746935E-07 -0.12833364E-07 -0.13899583E-07  0.12592777E-07
  0.14038636E-07  0.70440129E-08 -0.53552943E-08 -0.13147688E-07 -0.11915923E-08
  0.26322118E-08  0.65676157E-08 -0.14047615E-07 -0.32334397E-09 -0.18870058E-07
  0.48903486E-08 -0.40890844E-07 -0.36712963E-08 -0.25894491E-07 -0.16300779E-08
  0.23050631E-08 -0.45425637E-07  0.65814054E-08 -0.37652642E-07 -0.24091619E-08
 -0.49580261E-07 -0.67677868E-08 -0.39759087E-07 -0.12013953E-08 -0.68576170E-08
  0.13730181E-07  0.65665125E-08 -0.25811252E-07 -0.21456633E-07  0.21740408E-07
 -0.10377817E-07  0.12657736E-07 -0.17131691E-07  0.22885284E-07  0.30361849E-07
 -0.13527330E-07  0.85533495E-09  0.67343913E-09 -0.28814676E-08 -0.10585618E-07
  0.74481398E-08  0.14903517E-07 -0.18277490E-07 -0.47671800E-07  0.26576388E-07
  0.13550272E-07  0.98480877E-08 -0.28587600E-07 -0.10499948E-07  0.26156044E-07
  0.12900230E-07  0.11476027E-07 -0.82722438E-07  0.20120786E-07 -0.18171646E-08
 -0.20220302E-07 -0.41099648E-08  0.52164702E-08  0.31452644E-07 -0.27659081E-07
  0.29402603E-07 -0.29917453E-07  0.31944674E-07 -0.10050800E-07  0.56460612E-08
 -0.28836096E-07 -0.21110413E-07 -0.70159638E-08 -0.73515274E-10 -0.79869367E-08
  0.45643792E-08 -0.14967843E-07 -0.15678336E-07 -0.20280356E-08  0.13765080E-07

  0.45954547E-10 -0.61347398E-09 -0.91500156E-09  0.99782335E-09  0.82434348E-09
 -0.14247873E-08  0.12213446E-09 -0.87369721E-10 -0.12521109E-09  0.36052434E-09
 -0.21023804E-09 -0.44084940E-09  0.11809576E-08  0.10389054E-08 -0.14140121E-08
 -0.22692197E-10 -0.14649264E-09  0.97996463E-10 -0.18302461E-09  0.28332802E-09
 -0.38134341E-09 -0.59007894E-08 -0.56597897E-08  0.18325977E-07  0.95065677E-10
  0.12216492E-08 -0.63326944E-09  0.12401021E-09 -0.58730779E-09 -0.43604853E-09
  0.85411264E-09  0.87560922E-09 -0.79170340E-09  0.99647999E-11  0.75156165E-10
 -0.93774353E-10 -0.38245368E-10 -0.59307232E-09 -0.47940900E-09  0.63111810E-09
  0.47643713E-09 -0.30117979E-09 -0.23567791E-09  0.16715394E-09 -0.19076279E-09
 -0.18476848E-10  0.21466621E-10  0.15553868E-08  0.90465251E-09  0.48144635E-09
 -0.84795327E-09  0.34568024E-10 -0.13826766E-10  0.48049042E-10 -0.75393034E-09
 -0.14252000E-08 -0.14666047E-08  0.59509607E-09  0.24742810E-09 -0.96673266E-09
  0.20984166E-09  0.13818551E-10  0.19216393E-09  0.47451931E-09 -0.29008129E-09
 -0.14709295E-08  0.20631399E-09  0.70163797E-09 -0.66155911E-09  0.32098718E-10
 -0.70257024E-10 -0.10425249E-09 -0.31758811E-09 -0.32001346E-09  0.48144338E-09
  0.24185397E-09  0.67227091E-09 -0.12548632E-10 -0.16771180E-09  0.13535022E-09
  0.11458041E-09  0.61450528E-10 -0.10177779E-08 -0.79371002E-10  0.42368274E-09
  0.64541601E-09 -0.78709433E-09  0.20150068E-09 -0.28907513E-09 -0.31322321E-09
 -0.52970028E-09 -0.64972924E-09 -0.88613567E-09  0.57608080E-09  0.71008132E-09
 -0.58792695E-09  0.39418533E-10  0.19529119E-09  0.24359481E-09 -0.94576334E-11
 -0.59844643E-10  0.11202997E-08  0.53458315E-09  0.67330451E-09  0.50905569E-11
  0.13062042E-09 -0.16484689E-09  0.25880506E-09  0.70036987E-09 -0.60542977E-09
 -0.38878298E-09  0.12402145E-08  0.75427957E-09 -0.19155902E-08 -0.65354291E-10
 -0.50620612E-09  0.32348490E-10 -0.31600688E-09 -0.63038482E-09  0.89492950E-09
  0.55057456E-09  0.47926810E-09  0.34140501E-09  0.19248734E-09  0.39304603E-09
 -0.18828390E-10 -0.34105440E-09 -0.31499971E-09  0.14311360E-08  0.85562401E-09
  0.38692664E-09 -0.99889735E-09 -0.24149676E-09 -0.93854552E-09  0.30441832E-09
  0.43841853E-07  0.54836795E-07 -0.72613687E-07  0.18556344E-07 -0.97619283E-08
 -0.48951041E-08 -0.10589920E-07 -0.64774894E-08  0.26542754E-08  0.26895404E-07
 -0.19633655E-07 -0.63718577E-08 -0.44080987E-08  0.16720122E-07  0.73087792E-08
 -0.15208312E-08  0.39914723E-08 -0.25860077E-08  0.20698705E-07  0.93818976E-08
 -0.58008681E-08 -0.18132180E-08 -0.28564246E-08  0.68399325E-08  0.60053710E-08
 -0.10056881E-07 -0.24480043E-07  0.10936048E-07 -0.29545305E-07  0.20414216E-07
  0.11432701E-07  0.53724416E-08  0.10106535E-07  0.21407974E-07  0.22347173E-07
 -0.30217533E-07 -0.20816569E-07 -0.19548079E-08  0.22490699E-07  0.16306163E-07
  0.13385343E-07 -0.34378265E-07  0.18087630E-07 -0.14719209E-07  0.87278257E-08
 -0.32916285E-08 -0.15722816E-08  0.54935988E-07 -0.91493361E-08 -0.13538564E-07
  0.21484716E-07 -0.11825288E-07 -0.18390744E-07  0.34819247E-07  0.83308559E-08
 -0.99511661E-08 -0.31463297E-07 -0.18670705E-07  0.74870113E-08  0.59767547E-08
  0.10776926E-07 -0.14505413E-07  0.80723132E-08 -0.11010406E-07 -0.66556375E-08
 -0.13132864E-07 -0.18064919E-07  0.25902008E-08 -0.31409936E-07  0.23121879E-08
 -0.13067486E-07  0.18686695E-07 -0.27624293E-07  0.10415014E-07 -0.28383228E-07
  0.15718032E-07 -0.39715777E-08  0.99952046E-08  0.48041698E-09  0.10840458E-07
 -0.14017337E-07  0.10519644E-08  0.16919039E-08  0.10147135E-07 -0.22051424E-07
 -0.28699289E-07  0.46931228E-07 -0.52594689E-09  0.73775659E-09 -0.16605085E-07

  0.35383061E-09  0.41366118E-08 -0.57358469E-11 -0.49322300E-09  0.11397511E-09
  0.18112904E-09 -0.51619446E-10 -0.21832069E-09 -0.32885261E-11 -0.39477115E-09
  0.54360988E-08  0.17600444E-09 -0.37270095E-09 -0.46894556E-09  0.13414409E-09
  0.32963926E-09 -0.15541596E-09 -0.12362856E-10 -0.23478758E-08  0.50250467E-08
  0.40481070E-10 -0.64649728E-09 -0.83557517E-09  0.95065677E-10  0.18411858E-07
 -0.55937266E-09 -0.74993743E-09  0.27923120E-09  0.38450072E-08  0.52602694E-10
  0.17143963E-09 -0.26395059E-09  0.97821678E-10  0.16072646E-09  0.56992675E-10
 -0.32793450E-10  0.62442381E-09  0.51533664E-08  0.43918822E-09 -0.60888373E-10
  0.29450484E-09 -0.63861199E-10  0.71585680E-10 -0.62773827E-10  0.13356259E-09
 -0.51439237E-09  0.54544753E-08 -0.29794731E-09 -0.38678609E-09  0.22712820E-09
  0.11651250E-09 -0.16093208E-09 -0.15407873E-09 -0.10576101E-09  0.88516182E-09
  0.42033303E-08  0.19629467E-09 -0.18717760E-10 -0.26618895E-09 -0.68897455E-11
  0.15462120E-09  0.57148245E-09  0.15080998E-09 -0.70113146E-10  0.38466010E-08
 -0.14477489E-09 -0.22429009E-09  0.45064494E-09  0.21522944E-09  0.43292235E-10
  0.57336095E-10 -0.41397462E-09 -0.10743957E-08  0.35550581E-08 -0.84673767E-09
  0.65260751E-09  0.12849874E-09 -0.20596418E-09  0.44523321E-09 -0.17520708E-09
  0.39909392E-11  0.96866248E-09  0.50384721E-08  0.31683647E-09 -0.28743000E-09
  0.29636365E-09  0.54128937E-10 -0.58055832E-10  0.69924155E-10 -0.36081090E-09
  0.82036231E-09  0.45011545E-08  0.57284410E-09 -0.16874267E-09  0.45490003E-09
 -0.18970398E-09  0.43650212E-09  0.25821334E-09 -0.11723481E-09 -0.13516632E-08
  0.57213889E-08 -0.76438558E-09 -0.49132605E-10 -0.12544836E-09  0.16365630E-09
 -0.14926712E-09 -0.30210125E-09  0.11994807E-09  0.77948056E-09  0.67330948E-08
  0.38264695E-09  0.15134128E-09 -0.53593821E-09  0.20871520E-09 -0.17511807E-09
  0.65994386E-10  0.13171018E-09  0.64082855E-09  0.41121961E-08  0.71081091E-10
 -0.42051533E-10 -0.17798858E-09  0.94469454E-10  0.49285350E-10 -0.41789906E-09
  0.51514068E-10  0.79255734E-09  0.51644111E-08 -0.25018731E-09 -0.14596729E-09
  0.60511669E-09 -0.96493654E-10 -0.11209220E-08  0.33952045E-09  0.41068543E-09
 -0.14381956E-07 -0.62559367E-07  0.22384160E-07 -0.20341876E-07 -0.17811857E-07
  0.13077079E-07 -0.11163561E-06  0.59753287E-07  0.48647482E-07 -0.71985881E-08
  0.19286038E-07  0.70405503E-08 -0.30275816E-07 -0.87362637E-08  0.77633981E-08
  0.20563662E-07  0.17718159E-07  0.21981549E-07 -0.35009080E-08 -0.38205530E-07
 -0.18620637E-08  0.61556908E-08 -0.17172237E-07 -0.37423149E-08  0.57391649E-07
 -0.11702640E-07  0.29042852E-07  0.62168470E-08  0.14408144E-07 -0.17764367E-07
  0.60952054E-09 -0.26399404E-07  0.77983007E-09  0.66369141E-09 -0.88541655E-08
  0.23796784E-07  0.11019497E-07  0.31537018E-08  0.88725703E-08  0.26497779E-07
 -0.21852787E-07 -0.12438621E-07 -0.99828957E-09  0.50166995E-08 -0.39528709E-08
  0.36356957E-07  0.11737414E-07  0.49784770E-08  0.34742052E-07  0.92195525E-08
 -0.77536409E-08 -0.30763446E-07 -0.64512332E-08 -0.30019562E-08 -0.21195459E-07
 -0.13616697E-08 -0.41869684E-08  0.25664894E-07  0.23961847E-07 -0.85562645E-08
 -0.38467531E-07 -0.14530978E-07  0.16396785E-07  0.16110561E-07 -0.25810100E-09
 -0.12982484E-07 -0.61967317E-07 -0.95276722E-08  0.12264275E-07  0.12935974E-08
  0.12452950E-07 -0.18273152E-07 -0.54100343E-08 -0.18417058E-07  0.29301751E-08
 -0.18798679E-07 -0.71844878E-08  0.28062458E-07 -0.29081814E-08  0.30911304E-07
  0.15771350E-07 -0.25166300E-07  0.29011393E-09  0.11910834E-07 -0.18415479E-07
 -0.40725423E-08 -0.35860758E-08  0.16923253E-07 -0.31444204E-08  0.13442107E-07

  0.19201048E-09  0.33863214E-09 -0.34473746E-09 -0.83234680E-10  0.19868903E-10
 -0.20359414E-09 -0.44858421E-10 -0.48349088E-09  0.70329510E-10  0.17250813E-09
  0.55450224E-09 -0.12684757E-09  0.58694881E-10 -0.20023664E-09 -0.14005990E-09
  0.21407975E-09 -0.53777277E-09  0.53037047E-10  0.45385652E-09  0.14158046E-08
  0.55278980E-09 -0.13464259E-08 -0.76288044E-09  0.12216492E-08 -0.55937266E-09
  0.14742523E-07 -0.33090333E-09  0.16025701E-09  0.87490556E-09  0.28018171E-11
  0.98025908E-10  0.12360535E-09  0.83385416E-10  0.98735058E-10 -0.53427220E-09
 -0.14614747E-09  0.31911107E-09  0.71338183E-09  0.82465465E-09  0.35900020E-09
 -0.25937973E-10  0.12995599E-10  0.13052510E-09 -0.54787578E-09  0.13353046E-09
  0.30231882E-09  0.10986081E-08  0.16173766E-09 -0.25081388E-09 -0.13977258E-09
 -0.11945225E-09 -0.11901412E-09 -0.54651398E-09  0.25158295E-10 -0.78907998E-09
  0.11960531E-08  0.32506947E-09 -0.26470805E-09 -0.16983496E-09 -0.10960353E-09
  0.67016560E-10 -0.72328628E-09  0.32726851E-11  0.20548365E-09  0.45529693E-09
  0.52681235E-09  0.33394527E-09  0.33277509E-11 -0.35623554E-10 -0.16098570E-09
 -0.81867473E-09  0.60560835E-10  0.48148541E-09  0.13522191E-08 -0.59582895E-09
 -0.33839468E-09 -0.11852071E-09  0.17343141E-09  0.30822675E-09 -0.67929358E-09
 -0.93648578E-10 -0.14656564E-09  0.69741057E-09  0.69041015E-09 -0.28266599E-09
  0.28071456E-09 -0.30049600E-09  0.14486026E-09 -0.97471270E-09  0.11528616E-09
  0.41083247E-09  0.10312858E-08 -0.24806853E-09  0.52672991E-09  0.67067383E-10
  0.24200019E-09  0.51659851E-09 -0.11629714E-08 -0.15274986E-09  0.10106926E-08
  0.94417479E-09 -0.11778410E-08  0.11129900E-09  0.29219010E-09 -0.90373316E-10
 -0.35464947E-09 -0.51254636E-09 -0.20242309E-09 -0.38676736E-09  0.87248490E-09
  0.44848371E-09 -0.37849314E-09  0.49489409E-10 -0.49508500E-09  0.12955592E-09
 -0.45460022E-10 -0.26511703E-09  0.73531060E-09  0.11181854E-08 -0.12910280E-09
 -0.72996691E-10 -0.90580098E-10  0.42459742E-09 -0.10101475E-09 -0.23154036E-09
  0.12880111E-09  0.86960640E-09  0.92934200E-09 -0.89943674E-09  0.15051173E-09
  0.38540664E-10 -0.10318246E-08  0.30595189E-09 -0.10082742E-08 -0.39510198E-09
 -0.32956825E-07 -0.31097903E-07  0.40664204E-07 -0.16885582E-07  0.36520571E-08
 -0.62854241E-08  0.72365988E-08  0.20180113E-07 -0.13713683E-08  0.89681861E-08
 -0.16388777E-08 -0.30486546E-08  0.89358485E-08  0.71678670E-08 -0.29783657E-08
 -0.75986904E-08 -0.16441850E-07  0.28532081E-08  0.92973610E-08 -0.11232319E-07
  0.43197361E-08  0.28913464E-07  0.22579257E-08 -0.91581808E-08 -0.21211659E-07
  0.96868243E-08  0.10342377E-08  0.10924617E-07 -0.13702332E-07 -0.11754815E-07
  0.57700236E-09 -0.40204290E-08  0.12282513E-07 -0.10438582E-07  0.11369801E-07
  0.82143740E-08 -0.12704532E-07  0.23723615E-07 -0.15030048E-07  0.26775496E-07
 -0.10764176E-07 -0.75579828E-08  0.10996335E-07 -0.22267322E-07  0.52117782E-08
  0.26445725E-07  0.13925324E-09  0.98294539E-08  0.69694692E-10  0.31170139E-08
 -0.26662265E-08 -0.45726105E-08  0.19272458E-08 -0.55376743E-08 -0.21578645E-07
  0.35946065E-08  0.28595238E-07 -0.15326265E-07  0.94448530E-08  0.12468273E-08
 -0.77996520E-08 -0.24779938E-07  0.11127985E-07 -0.20491422E-08  0.30955434E-08
 -0.12039393E-07 -0.14084730E-09 -0.41426397E-08 -0.73630124E-08  0.15023418E-08
 -0.68018708E-08 -0.39232829E-08  0.14928804E-07  0.22355047E-07 -0.28996991E-07
 -0.17890655E-07  0.11024608E-07 -0.88529743E-08 -0.12294452E-07  0.18746128E-07
  0.48453035E-08 -0.29079862E-08 -0.88289201E-08 -0.24659840E-07  0.60821481E-08
 -0.66237329E-08  0.10827906E-07  0.34838169E-07  0.26599641E-07 -0.12228870E-07

  0.19284205E-09 -0.67900910E-09  0.12854676E-08 -0.19504464E-09  0.26237288E-10
  0.63599033E-11 -0.18587351E-11  0.13044288E-10  0.30334368E-09  0.30794436E-09
 -0.37974100E-09  0.40794039E-09 -0.25283555E-09 -0.21501337E-09  0.23109455E-09
  0.35522188E-10 -0.36366435E-10 -0.10627361E-09 -0.19380113E-09  0.48411829E-09
 -0.81302518E-09  0.17204757E-09 -0.10588426E-08 -0.63326944E-09 -0.74993743E-09
 -0.33090333E-09  0.13099110E-07 -0.23056686E-10  0.25063804E-09 -0.54784098E-09
  0.52837000E-10 -0.14024194E-09 -0.22645492E-09  0.70571101E-10  0.28379257E-10
  0.29406448E-09  0.39359498E-09  0.71711222E-09  0.91086057E-09 -0.15698161E-09
 -0.55589344E-10  0.44301706E-10  0.10576108E-09 -0.16225986E-10 -0.13770546E-09
 -0.25996366E-09  0.73477828E-09 -0.91916401E-10 -0.51001623E-10 -0.30440458E-10
 -0.39590666E-09 -0.11754001E-10 -0.67946677E-10  0.26237641E-10  0.78194906E-10
 -0.40595442E-09 -0.38562531E-09 -0.28810611E-09  0.78625151E-09  0.40870464E-09
  0.13451735E-09 -0.82999591E-10 -0.15541431E-09  0.19035441E-10  0.62595092E-09
  0.13603944E-09  0.94906640E-12  0.14147034E-09 -0.29359287E-09 -0.33977503E-09
  0.19021365E-09  0.44971297E-09 -0.78749791E-09 -0.10984209E-08 -0.10254935E-08
 -0.21815522E-09 -0.37292074E-09  0.30625756E-09 -0.33395118E-11  0.53978228E-10
  0.25118798E-09  0.38289373E-09  0.90954567E-09  0.58560241E-09 -0.53983152E-10
  0.19031258E-09 -0.18044223E-09 -0.23349397E-09 -0.14011905E-09  0.45297037E-10
  0.20493851E-09  0.11154462E-08  0.79579656E-09 -0.27921837E-10  0.10598944E-09
  0.14745249E-09 -0.63118789E-10 -0.10586552E-09 -0.21630302E-09 -0.79703726E-09
  0.27491551E-08 -0.74454638E-09 -0.11014221E-09  0.12344276E-10 -0.10749672E-09
  0.10299010E-09 -0.12713387E-10  0.79546497E-09  0.10770745E-09 -0.76677454E-10
 -0.17885765E-09  0.23211635E-09 -0.35809240E-09 -0.28785216E-09  0.30899278E-09
 -0.86916770E-10  0.25659182E-09  0.26410967E-09  0.10239091E-08 -0.48509351E-09
  0.22601270E-09 -0.93246193E-09 -0.32590522E-09 -0.30029654E-10 -0.46079362E-10
 -0.94362765E-10 -0.18870179E-09 -0.12723424E-08 -0.13025310E-08  0.11429056E-09
  0.33922215E-10 -0.90238567E-10  0.36539590E-09 -0.77624718E-10 -0.41611029E-09
  0.85469776E-08 -0.52376271E-08  0.19664983E-07  0.29807994E-07  0.29609737E-07
 -0.50260713E-08  0.51723867E-07  0.63958483E-08 -0.35709344E-07  0.86095672E-08
 -0.36140908E-07 -0.33010109E-09 -0.17085165E-08  0.26146023E-07 -0.17235719E-07
  0.10980724E-07 -0.46244441E-08  0.75098883E-08 -0.40118787E-08  0.36600422E-07
  0.16373124E-07 -0.14816034E-07  0.55250868E-08  0.55504271E-08  0.18809545E-07
  0.70976866E-08  0.29147120E-08 -0.10507018E-07  0.86574810E-08 -0.34542303E-08
  0.15354464E-07 -0.54220147E-07 -0.10240544E-07  0.23972962E-07 -0.39250981E-08
  0.37476000E-08  0.15668222E-07 -0.32327481E-08  0.21119780E-08 -0.41361361E-08
 -0.49327390E-08  0.12383440E-07  0.40229148E-08 -0.11610304E-07 -0.12791378E-07
  0.14975783E-08  0.57337709E-08  0.32126216E-08  0.34090256E-08 -0.25968350E-07
 -0.66529090E-08  0.39499677E-08 -0.40641989E-08 -0.67610556E-08  0.63865289E-09
  0.40897661E-08  0.21576973E-07  0.22403296E-08 -0.33496203E-07  0.85207073E-08
  0.15947556E-07  0.87897565E-08 -0.26160400E-07 -0.73294402E-09 -0.51105770E-08
  0.11236775E-07  0.15475768E-07  0.21998644E-07 -0.28094071E-07 -0.15060206E-07
 -0.12181434E-08 -0.24691823E-07  0.13123051E-07 -0.99033493E-08 -0.18317525E-07
 -0.18172556E-08 -0.13376158E-07  0.19769401E-07  0.14185334E-07  0.86042862E-08
  0.37961352E-07  0.14752184E-07 -0.15473853E-09 -0.34488361E-08 -0.14998228E-07
  0.20064304E-07  0.21538798E-07  0.76983397E-08 -0.49446414E-08  0.18520015E-07

 -0.59843621E-09  0.54033078E-08  0.14816125E-09 -0.90577958E-09 -0.77822054E-10
 -0.30306696E-09  0.48479068E-09 -0.76593210E-09 -0.19384775E-09 -0.28228852E-09
  0.38700352E-08 -0.70168065E-09  0.29138436E-08 -0.57796916E-09 -0.40137308E-09
 -0.59780178E-09  0.11055220E-09 -0.12060048E-09  0.19573884E-08  0.54613036E-08
  0.11941954E-08 -0.62005246E-09  0.51180976E-09  0.12401021E-09  0.27923120E-09
  0.16025701E-09 -0.23056686E-10  0.86344106E-07 -0.49165775E-08  0.43449084E-08
  0.19530608E-09  0.33909109E-09  0.18424519E-09 -0.27955847E-09  0.74039880E-11
 -0.62664471E-09 -0.31999962E-08  0.42632271E-08 -0.10187165E-09  0.15121321E-08
  0.41121579E-09  0.21297164E-09  0.27393183E-09 -0.31796765E-09 -0.21001550E-09
 -0.28555361E-08  0.82556053E-08 -0.41603027E-09 -0.92558564E-09 -0.41536346E-09
 -0.47266974E-10 -0.49400916E-10  0.32335751E-10  0.29708885E-09 -0.58831960E-08
  0.51477410E-08  0.51074854E-09  0.37621679E-10  0.79212802E-10  0.25901763E-09
 -0.23937708E-09  0.60490791E-09 -0.18599744E-11  0.35822160E-08  0.55650972E-08
 -0.69664230E-10 -0.56613206E-09 -0.10605516E-09  0.44418156E-09  0.18319636E-09
  0.51730618E-09  0.12127345E-09  0.62752507E-08  0.71104335E-08 -0.61472326E-09
 -0.62122632E-09 -0.43333657E-09  0.57454023E-11 -0.54570455E-09 -0.48930634E-10
  0.13865212E-09  0.11897395E-08  0.74979845E-08  0.38120017E-10  0.22035340E-08
  0.92241565E-11  0.15559317E-09 -0.63577303E-09 -0.19415427E-09 -0.23123584E-09
  0.39315066E-09  0.40072570E-08  0.77753267E-09 -0.93348369E-09  0.59492243E-09
 -0.42744307E-10 -0.17332263E-08 -0.88262288E-09  0.19878092E-09 -0.13882650E-08
  0.49625642E-08  0.48399300E-09  0.28209087E-09  0.61734473E-09  0.53327351E-10
 -0.96531226E-09 -0.41552621E-09  0.40674220E-09  0.31844842E-08  0.65647100E-08
 -0.21142143E-09  0.21049441E-08 -0.31846160E-09 -0.67630488E-10  0.22399052E-09
 -0.14777760E-08  0.15745181E-09  0.15138348E-08  0.61278846E-08 -0.50940475E-09
  0.16915645E-08 -0.32543707E-09 -0.73416798E-09 -0.25073701E-09  0.93619072E-09
  0.34149174E-09 -0.14341141E-09  0.55505813E-08  0.11071507E-08 -0.33505980E-09
  0.39048044E-09 -0.42326638E-10  0.11637825E-09  0.89968110E-09 -0.53351885E-09
  0.66259426E-07 -0.98455132E-07  0.14853561E-07  0.56658773E-07  0.23508866E-07
 -0.42184114E-07  0.13258459E-06 -0.15203266E-06  0.29337470E-07  0.80639845E-07
  0.29063496E-07  0.10125195E-06  0.78650991E-07 -0.38257293E-07 -0.14680725E-07
  0.83840163E-07 -0.31075158E-07  0.27438071E-07 -0.78933956E-07 -0.79767754E-07
  0.11689628E-07 -0.45445637E-07  0.12596713E-06  0.24718073E-07 -0.55553142E-07
 -0.16224641E-07  0.45678414E-07  0.88422151E-07  0.53129373E-08  0.35143836E-07
  0.11995131E-06 -0.92344748E-07  0.44069817E-07  0.40511865E-07 -0.39078454E-08
  0.17332848E-07  0.10194844E-06  0.57587389E-07  0.34623830E-07 -0.77057384E-07
  0.32381729E-08  0.57094749E-08  0.30233188E-07 -0.98246069E-07 -0.66237963E-07
  0.84326652E-07 -0.38550283E-07  0.66560451E-07  0.14873773E-06  0.24908682E-07
 -0.36962413E-07  0.97050947E-08 -0.52548137E-07  0.59703317E-08 -0.57786369E-07
  0.68420679E-07  0.69412257E-08 -0.30191250E-06  0.42534478E-07 -0.58899619E-08
 -0.28385745E-07 -0.10160920E-06 -0.25967933E-07 -0.34800012E-07 -0.15576096E-07
 -0.69461569E-07  0.18263474E-07 -0.23315991E-07 -0.11901413E-07 -0.54349484E-07
 -0.86153991E-08 -0.12189151E-07  0.15540929E-07 -0.40015493E-07 -0.42185841E-07
  0.37605750E-07 -0.58698347E-07  0.21467505E-07 -0.89038426E-07  0.79963931E-07
 -0.69230588E-07  0.33081950E-07  0.37109102E-07  0.20818823E-08  0.11768065E-06
 -0.10128031E-07 -0.55350083E-07 -0.77675756E-07 -0.62155637E-07  0.55491419E-07

 -0.53992437E-09  0.21928123E-05 -0.46304003E-08  0.44990260E-08  0.24073418E-08
  0.38124032E-08 -0.60809430E-08 -0.14131553E-08 -0.35942394E-08  0.26758391E-08
  0.21807629E-05 -0.80480085E-08  0.18838529E-08 -0.77218912E-08  0.25834380E-08
 -0.36414091E-08  0.15752457E-08  0.25972078E-08 -0.14648656E-08  0.21958751E-05
  0.59851560E-08  0.27307027E-08  0.90437308E-08 -0.58730779E-09  0.38450072E-08
  0.87490556E-09  0.25063804E-09 -0.49165775E-08  0.22697799E-05  0.10775171E-07
  0.87823079E-09  0.47298145E-08  0.14371727E-08  0.54465642E-08  0.12618447E-08
  0.19558538E-08 -0.48632915E-08  0.21691809E-05  0.83865433E-08  0.26462250E-08
 -0.31891081E-08  0.74159080E-09 -0.34030482E-09  0.28608740E-08 -0.87032558E-11
 -0.29096584E-08  0.21629964E-05 -0.93220167E-09  0.14008241E-08  0.42178624E-08
  0.12656254E-08 -0.64465756E-09 -0.28351239E-08  0.44857788E-08  0.13909845E-07
  0.21474792E-05 -0.24331957E-08 -0.84003299E-09 -0.18465397E-09  0.17899355E-08
 -0.26120980E-08 -0.16143848E-08  0.26619350E-08  0.27211503E-08  0.21760973E-05
  0.61232469E-08 -0.56295208E-08  0.65003879E-08  0.11506487E-08 -0.19251027E-08
 -0.27114790E-09 -0.26191653E-09 -0.10216254E-07  0.21528277E-05 -0.99736779E-08
  0.30190366E-08 -0.28931386E-08  0.15643954E-08 -0.10642476E-08 -0.17666924E-09
  0.44221033E-09  0.12108763E-07  0.21640560E-05 -0.34999986E-08  0.58549045E-08
 -0.21464497E-08 -0.18047123E-08  0.70602562E-08  0.63077553E-09 -0.10596810E-08
 -0.74066636E-09  0.22014605E-05  0.10170218E-07 -0.12966924E-08 -0.18864111E-08
  0.38908144E-08 -0.30311670E-08  0.10892274E-08 -0.73524761E-09  0.13471778E-07
  0.21725519E-05 -0.52412237E-09 -0.30682232E-08  0.91036713E-08  0.97476962E-09
  0.68747333E-09 -0.30143085E-08  0.41696580E-08  0.16549569E-08  0.21735478E-05
  0.29843801E-09  0.61443818E-08 -0.78348181E-08 -0.29514965E-09 -0.35757361E-08
  0.11023879E-08 -0.24207169E-08  0.20875094E-08  0.21766251E-05 -0.39487006E-08
  0.31936859E-08  0.19974402E-08  0.20035732E-08 -0.73138839E-09 -0.15365863E-08
  0.34832069E-08  0.40231213E-08  0.21812709E-05 -0.49123442E-08  0.39485659E-08
 -0.38721711E-08  0.20019877E-08 -0.22768741E-09 -0.13547987E-08 -0.46453517E-08
 -0.48517102E-06 -0.97774640E-05  0.15767508E-05 -0.62555474E-07  0.20002546E-05
 -0.52844487E-07  0.63328842E-07 -0.53451874E-07 -0.81918995E-07  0.16554298E-05
 -0.19839504E-05 -0.49593472E-06  0.23141690E-06 -0.23928342E-06  0.14121761E-06
  0.73097790E-06 -0.37989922E-06 -0.55001274E-07  0.19604282E-05 -0.33600710E-05
 -0.12243356E-06  0.59486273E-06 -0.89245537E-06 -0.53746284E-07  0.14812003E-06
  0.71673298E-06 -0.12242002E-05  0.43574745E-06 -0.90443402E-06  0.48385372E-07
 -0.41652703E-07 -0.40405466E-06  0.11388290E-06 -0.12490048E-06  0.44269035E-06
 -0.34243482E-06  0.13970096E-05 -0.33004293E-05 -0.16700723E-06 -0.60204648E-06
  0.24686445E-06  0.47559168E-06 -0.46757344E-06 -0.41810726E-06 -0.25978018E-06
  0.24302423E-06 -0.23914127E-05  0.45525451E-06  0.25760282E-06 -0.97422944E-06
  0.31183581E-06  0.79543587E-06 -0.18436936E-06  0.46012084E-06  0.17999230E-05
 -0.37937313E-05  0.55613430E-06  0.17355162E-06 -0.93546490E-06  0.62674425E-06
 -0.67600259E-07  0.20418006E-06  0.56513553E-06  0.11314846E-05 -0.23915288E-05
 -0.39057227E-06 -0.21789865E-06 -0.77550921E-06 -0.22408849E-07  0.20403677E-06
  0.11414780E-06 -0.52814577E-06  0.84679935E-06 -0.33217400E-05 -0.61921368E-06
 -0.19993257E-06  0.18940486E-06  0.56360973E-06  0.41590969E-06 -0.52097902E-06
  0.10656733E-06  0.14947832E-06 -0.14925623E-05  0.48016631E-06 -0.65502806E-07
  0.60568528E-06  0.29667144E-06 -0.45602291E-06  0.88384246E-06 -0.11437712E-05

 -0.59541111E-09  0.47298911E-08  0.24600360E-08  0.11776390E-10  0.40977381E-10
 -0.71836625E-09 -0.27805036E-09 -0.95007995E-09 -0.36831160E-09 -0.18111011E-09
  0.28739427E-08  0.21819641E-10  0.22165038E-09  0.87404719E-09 -0.44799926E-09
  0.30758896E-09  0.14932667E-09  0.43005334E-09  0.15991126E-08  0.38927560E-08
 -0.16207085E-08 -0.17087498E-09  0.11798203E-08 -0.43604853E-09  0.52602694E-10
  0.28018171E-11 -0.54784098E-09  0.43449084E-08  0.10775171E-07  0.82066881E-07
 -0.30457450E-09  0.34344660E-09  0.22538691E-09 -0.62683906E-09  0.91971393E-09
 -0.78831987E-09 -0.62446672E-09  0.37293529E-08 -0.17697370E-08  0.21043672E-09
  0.60748265E-09 -0.14994219E-08 -0.22140738E-09  0.96423265E-09  0.90749236E-09
 -0.15397161E-08  0.36354887E-08 -0.34698960E-08  0.38235263E-09 -0.93810433E-09
  0.38156276E-09  0.47831997E-09 -0.84405730E-09 -0.38632816E-09  0.50229233E-09
  0.52868893E-08  0.16798959E-08  0.34654054E-09 -0.14930397E-09  0.63886727E-10
 -0.32874971E-09  0.31681823E-09  0.74787557E-09 -0.18515970E-09  0.31744565E-08
 -0.19080089E-09  0.12572229E-09 -0.96920473E-09  0.11967745E-08  0.21391470E-09
  0.22916496E-09  0.72605258E-09 -0.21066096E-09  0.20159025E-08  0.18400518E-08
 -0.44441258E-09 -0.32879850E-09  0.12637161E-08 -0.87013316E-10 -0.61184948E-09
 -0.10849520E-09  0.11669480E-08  0.48339078E-08 -0.34825391E-08  0.96032720E-10
  0.56449934E-09 -0.49881931E-09  0.73787215E-11  0.13028894E-08 -0.55713570E-09
  0.13773858E-08  0.34202753E-08 -0.43159698E-08 -0.55460874E-09 -0.59741055E-09
  0.23819561E-09  0.46779403E-09 -0.32055718E-09 -0.20860631E-08  0.13160217E-08
  0.40589483E-08  0.93718988E-10 -0.10868553E-08 -0.35559890E-09  0.14853166E-08
  0.68499675E-09  0.25799761E-10 -0.94708254E-09 -0.55184290E-09  0.21056757E-08
  0.25084773E-09 -0.95401501E-09 -0.78157935E-10 -0.13663757E-09  0.11106532E-09
  0.55850657E-09 -0.56610977E-09  0.18449389E-09  0.10048525E-08 -0.10453434E-08
  0.87931584E-09 -0.54336170E-09  0.74763899E-09  0.29255401E-09 -0.64833084E-09
 -0.33405823E-09  0.15416783E-08  0.26477574E-08  0.10046238E-08  0.94091871E-09
  0.54761939E-09 -0.20420132E-09 -0.39006976E-09 -0.41596472E-09  0.45683421E-10
  0.12546375E-07 -0.63432539E-07 -0.15228496E-06  0.54307010E-07 -0.19743029E-07
 -0.37276279E-06  0.50692370E-08  0.12804599E-07  0.22737467E-06  0.12250247E-06
 -0.48299487E-07  0.84803010E-07 -0.11669336E-06 -0.57107127E-08  0.20158667E-06
  0.66245887E-07  0.13071370E-07  0.10689869E-06  0.82395792E-07 -0.22918497E-07
  0.37183235E-08  0.34854819E-07 -0.16683918E-09 -0.11529735E-06  0.18946290E-07
  0.22531380E-07 -0.88168998E-08  0.63456991E-07  0.31011591E-07  0.33198487E-07
 -0.87030996E-08 -0.29395874E-08  0.34805648E-07  0.46162248E-07  0.71557188E-07
  0.24853927E-07  0.38560085E-07  0.18576888E-07  0.12194022E-06 -0.60272645E-07
 -0.91439046E-08 -0.31611905E-07 -0.81719593E-07 -0.33535168E-07  0.10226131E-06
  0.14107453E-06  0.99532138E-08 -0.61048119E-08  0.25039510E-07  0.15518098E-07
 -0.62552932E-07  0.28119758E-07 -0.50075563E-08 -0.54682460E-07  0.20256143E-07
  0.15987679E-07 -0.12703549E-07 -0.80221396E-07 -0.34109906E-08  0.51604010E-07
 -0.19279316E-07 -0.64244613E-07 -0.68576076E-07 -0.66651202E-07  0.43367092E-07
 -0.64557685E-08  0.57931529E-07 -0.10926241E-06  0.32701771E-07 -0.52798382E-08
 -0.44266407E-07 -0.57534271E-07 -0.55821708E-07 -0.15345970E-08 -0.12871145E-06
  0.62550695E-07 -0.46393189E-07  0.45254625E-07 -0.77933208E-07 -0.11580769E-07
 -0.43479660E-07 -0.24909749E-07 -0.40896610E-07 -0.50918657E-07 -0.57951188E-07
  0.59648230E-07 -0.33750079E-07  0.71328033E-07 -0.46052721E-07 -0.95757007E-07

  0.16186113E-10  0.81905019E-09 -0.40187383E-10 -0.19867697E-08  0.91139581E-09
  0.11807692E-08 -0.91299645E-10 -0.20950260E-09  0.21546921E-09 -0.26214777E-09
  0.73676903E-09 -0.29537908E-09  0.14018311E-09  0.12303819E-08  0.59479742E-09
 -0.82952501E-09 -0.16247857E-09  0.23035905E-09 -0.38413911E-09  0.11409977E-08
  0.31657852E-09 -0.92387123E-09  0.10949318E-08  0.85411264E-09  0.17143963E-09
  0.98025908E-10  0.52837000E-10  0.19530608E-09  0.87823079E-09 -0.30457450E-09
  0.36205835E-07 -0.79763674E-08 -0.75521035E-08 -0.27648415E-08 -0.55763378E-09
 -0.36572770E-09 -0.44199431E-09  0.21696403E-08 -0.12649770E-08  0.40225481E-09
  0.69944764E-09  0.17620661E-09 -0.58875814E-10 -0.20580431E-09 -0.33442406E-09
 -0.15506459E-08  0.18888895E-08  0.80857237E-10 -0.24901942E-08  0.11436134E-08
  0.97231183E-09  0.15289822E-09  0.17825191E-09 -0.15357193E-09 -0.20447357E-09
 -0.57201459E-09  0.82089998E-09 -0.54146516E-09  0.70341604E-09  0.80552742E-09
 -0.13180733E-09 -0.63186177E-11  0.73220519E-10  0.11004911E-08  0.60046220E-09
 -0.78576243E-09 -0.14739097E-08  0.77695419E-09  0.76320891E-09  0.64017973E-09
  0.71049661E-09 -0.10382553E-09 -0.17335696E-08  0.20571916E-09 -0.23853946E-09
  0.95372446E-10  0.84423072E-09  0.21299859E-09 -0.10254180E-09 -0.47014457E-09
 -0.35262152E-09 -0.27659908E-08 -0.15849742E-09 -0.74464010E-10  0.18783861E-08
  0.36410564E-09  0.36273933E-09 -0.12489608E-09 -0.31539332E-09 -0.23789673E-10
 -0.17271281E-09  0.97182328E-09  0.14938106E-09 -0.11865914E-08  0.74513063E-09
  0.78096372E-09 -0.36228152E-09  0.27163837E-09 -0.17321243E-09  0.18448140E-08
  0.14348661E-09  0.32520757E-09  0.55243713E-09  0.30461649E-09  0.71543259E-09
  0.98861365E-10 -0.34181315E-09  0.11031510E-09  0.10529653E-08 -0.30321065E-09
  0.21659755E-09  0.32432520E-09  0.67528401E-09  0.37344084E-09 -0.78354907E-09
  0.72361064E-10  0.20801092E-09  0.10407044E-08 -0.19460668E-09 -0.19910015E-09
 -0.10307120E-09  0.79000882E-09  0.48525361E-09 -0.37906309E-09 -0.10859146E-09
 -0.21026922E-09  0.19941259E-08  0.11833067E-08 -0.38914728E-10  0.18445211E-09
  0.42706920E-09  0.67804259E-09 -0.64575711E-09  0.78650076E-09  0.16746698E-09
  0.75506651E-07 -0.18065006E-07  0.22787231E-07 -0.52907151E-07  0.29953122E-07
 -0.28172790E-07 -0.43762205E-08  0.13508670E-07  0.10630338E-07 -0.57864265E-07
  0.16724945E-07 -0.91455745E-08  0.60012168E-07 -0.18739654E-07 -0.17351502E-07
 -0.27540771E-08  0.21669906E-07 -0.17258735E-07 -0.25728174E-07  0.25465106E-07
  0.11479899E-07  0.90654301E-08  0.56547523E-08  0.16514913E-08 -0.26119613E-07
 -0.25073463E-07  0.24819160E-07 -0.41410310E-07  0.19212993E-07 -0.62160511E-08
  0.20810535E-07 -0.35635295E-07 -0.15352219E-07 -0.43465694E-07  0.29471640E-07
  0.91883670E-09  0.34697571E-07 -0.24570384E-07 -0.15460263E-08  0.15057961E-06
 -0.73019215E-08 -0.13539041E-07 -0.13653843E-07 -0.76010741E-08 -0.10585257E-07
 -0.14205690E-07 -0.10354475E-08 -0.88235248E-08  0.89077672E-07 -0.25175695E-07
  0.23010989E-08 -0.49056942E-07 -0.30727111E-07  0.11536882E-07  0.21767421E-07
 -0.10117757E-07 -0.25665029E-07  0.37298725E-07 -0.17541528E-07  0.35283067E-08
 -0.10900193E-07 -0.42776797E-07  0.91248444E-08  0.83767152E-08  0.10648282E-07
 -0.54002947E-08  0.64853755E-07 -0.28605408E-07 -0.93378768E-08 -0.18007421E-07
  0.18146323E-07 -0.18624902E-07  0.20242944E-07  0.22546159E-08  0.19254900E-07
  0.66666990E-07 -0.49212849E-07  0.22250187E-07 -0.66063109E-07  0.16401673E-07
 -0.11666206E-07 -0.24861649E-07 -0.30027394E-07  0.93073978E-08 -0.20757834E-07
 -0.23543528E-07  0.22754670E-07  0.43340721E-07  0.24312907E-07  0.11482990E-08

  0.26713048E-09  0.37799048E-08 -0.11340975E-09  0.10607687E-08 -0.69490010E-09
  0.31519306E-09 -0.28145040E-10  0.15844541E-09  0.38371345E-10  0.71835301E-09
  0.42474959E-08  0.37026415E-11  0.11152499E-08 -0.65751258E-09  0.73994603E-09
 -0.23310302E-09  0.23517042E-09 -0.34646904E-10 -0.33754210E-09  0.43410769E-08
  0.46090613E-09  0.10038902E-08 -0.18249094E-08  0.87560922E-09 -0.26395059E-09
  0.12360535E-09 -0.14024194E-09  0.33909109E-09  0.47298145E-08  0.34344660E-09
 -0.79763674E-08  0.33539882E-07 -0.76299756E-08 -0.25748769E-08 -0.10413792E-08
  0.26575803E-08  0.58382437E-09  0.46791831E-08  0.30426361E-09  0.64913511E-09
 -0.66592098E-09  0.23503506E-09  0.34710510E-09 -0.37605399E-09 -0.64753388E-09
  0.34188377E-09  0.65368363E-08 -0.56495303E-09  0.11112621E-08 -0.14033794E-08
  0.89315475E-09  0.40897478E-09 -0.16173147E-10  0.12690324E-09  0.38495401E-09
  0.35348781E-08  0.38948582E-09  0.99265729E-09 -0.22455168E-08  0.98986458E-09
 -0.58698920E-09  0.16893016E-09 -0.28455072E-09 -0.28081698E-09  0.31381941E-08
 -0.33243926E-10  0.77470896E-09 -0.77767512E-09  0.96876624E-09 -0.86020270E-10
 -0.31852124E-09  0.66481488E-09  0.62981013E-09  0.85951378E-08 -0.75313005E-09
  0.83093442E-09 -0.49568675E-09  0.43778658E-09 -0.68246738E-09  0.15409310E-10
 -0.16484702E-10  0.10281331E-08  0.49227191E-08 -0.51416182E-09  0.41031749E-09
 -0.65669337E-09  0.58500222E-09  0.19406816E-09  0.15295891E-09 -0.92845463E-10
  0.89884330E-09  0.43847864E-08  0.18173760E-09  0.71500548E-09 -0.60742395E-09
  0.69587111E-09 -0.13680878E-09 -0.27603099E-09 -0.20358713E-09  0.12267555E-08
  0.60827327E-08 -0.21463739E-09  0.20866635E-09 -0.10305965E-08  0.95303039E-09
  0.21926813E-09  0.34752919E-10  0.26586529E-10 -0.29166384E-09  0.73507838E-08
  0.73430631E-10  0.10439801E-08 -0.16182609E-08  0.71982704E-09  0.93023590E-10
 -0.15187726E-09 -0.17026358E-09 -0.51592009E-09  0.64105195E-08 -0.81341252E-10
  0.97809334E-09  0.21264976E-09  0.55525325E-09  0.45229017E-10 -0.54500183E-10
  0.14802911E-09 -0.22207348E-09  0.56557206E-08  0.33651994E-09  0.47508385E-09
 -0.49436126E-09  0.94357079E-09 -0.19847713E-09 -0.30596902E-10 -0.68376352E-09
 -0.28009774E-07  0.27657113E-07 -0.28889277E-07  0.52490225E-07 -0.19901990E-07
 -0.16169228E-07 -0.79993053E-08 -0.13342083E-07  0.10225970E-07  0.23900142E-07
 -0.36939343E-07  0.68314515E-08 -0.35857866E-07  0.29314762E-07  0.16406725E-07
  0.16737948E-07 -0.76609409E-08  0.58369547E-07 -0.10829348E-07  0.12842224E-07
 -0.99173155E-08 -0.28400948E-08 -0.20508028E-07  0.26131406E-07 -0.52108816E-08
  0.85229187E-08  0.96514653E-08  0.24684034E-07 -0.66054644E-07  0.18612712E-07
 -0.21912231E-07  0.70147998E-07 -0.53578361E-08 -0.31401782E-07 -0.25381806E-07
  0.65621579E-08  0.13653897E-08 -0.30453866E-07  0.90454685E-09 -0.11274781E-07
 -0.29167936E-07  0.28908507E-07  0.36617184E-07  0.71973376E-09  0.54426750E-08
 -0.74498757E-08  0.87502510E-08 -0.24017169E-07 -0.20460394E-07  0.43002374E-07
 -0.13815233E-07  0.19431298E-07 -0.85999381E-08  0.30407267E-07  0.20679190E-07
 -0.21582494E-07 -0.97104549E-08 -0.19011997E-07  0.68109426E-08 -0.11965871E-07
 -0.36592550E-07 -0.28077210E-07 -0.28156970E-07  0.12319688E-07  0.15778141E-07
 -0.29315376E-07 -0.14920103E-07  0.94773331E-08  0.11045848E-08  0.40488382E-07
 -0.19732345E-07  0.51870437E-07 -0.41127116E-07  0.18772760E-07 -0.33355531E-07
 -0.63977034E-07  0.89007089E-07  0.18600295E-07 -0.17207005E-07  0.47120016E-08
 -0.14334237E-08  0.17338332E-07 -0.71599262E-08  0.69724109E-09  0.14757653E-08
 -0.77212420E-07  0.20193610E-07  0.21763637E-07 -0.90061828E-08  0.93519116E-09

  0.10030344E-09  0.12129470E-08 -0.29667375E-08  0.12043187E-08  0.30082022E-09
  0.40203648E-09 -0.13963216E-09 -0.38354593E-09 -0.39123233E-09  0.42952678E-09
  0.15386295E-08  0.21655822E-09  0.87455676E-09  0.79004319E-09 -0.78694493E-09
  0.31910079E-09  0.74728175E-10 -0.21842155E-09  0.11726203E-08  0.68064468E-09
 -0.10338428E-08  0.11014637E-08  0.10354778E-08 -0.79170340E-09  0.97821678E-10
  0.83385416E-10 -0.22645492E-09  0.18424519E-09  0.14371727E-08  0.22538691E-09
 -0.75521035E-08 -0.76299756E-08  0.30213698E-07  0.44796344E-09  0.19340218E-08
  0.20345847E-08 -0.25563643E-09 -0.94674085E-11  0.70737117E-09  0.22342475E-09
  0.50803839E-10  0.19870371E-08 -0.22783933E-09  0.40775272E-10  0.22999248E-09
  0.69643017E-10 -0.11687982E-10  0.15074478E-09  0.13299753E-08  0.84840029E-09
 -0.41887362E-09 -0.19858763E-09 -0.41318572E-09 -0.29091172E-09 -0.42162694E-09
  0.15884679E-08 -0.51158344E-09  0.10280842E-08  0.85281735E-09 -0.13017284E-08
  0.18691547E-09 -0.24035783E-09 -0.28887357E-09 -0.40667606E-09  0.30573796E-09
  0.26269369E-10  0.77778907E-09  0.97803784E-09 -0.10099126E-08  0.18192602E-09
  0.73604616E-09  0.11970690E-09  0.54131171E-09  0.35534240E-09  0.15571831E-08
  0.81241851E-10  0.34583650E-09  0.10437948E-08 -0.56191059E-10 -0.50714302E-09
  0.69992227E-09  0.27961956E-09  0.73377859E-09  0.57162464E-09  0.53818053E-09
  0.58211902E-09 -0.45294845E-09 -0.69486663E-10 -0.48555310E-09 -0.75474379E-10
  0.59513872E-12  0.77712521E-09 -0.12450064E-08  0.86213020E-09  0.51975743E-09
 -0.35148201E-09  0.21148709E-09  0.46502360E-09  0.12771293E-09  0.19694517E-09
 -0.11409291E-09  0.10249530E-08  0.38810518E-09  0.82566670E-09 -0.27360024E-09
 -0.72114116E-11 -0.15458629E-09  0.11212429E-09 -0.97806566E-09  0.16386289E-09
 -0.23966139E-09  0.35400702E-09  0.92523774E-09  0.93463284E-10  0.15060550E-09
  0.21476406E-09  0.46106234E-09 -0.51789494E-09  0.53665859E-09  0.93401835E-09
  0.57809141E-09  0.51906169E-09 -0.54827221E-09 -0.13296284E-09  0.16444924E-09
  0.80480270E-10 -0.26351073E-09  0.17872301E-08  0.12308444E-08  0.61998965E-09
  0.92802371E-09 -0.37232445E-09  0.34685870E-09 -0.36596858E-10 -0.54699917E-09
 -0.59653545E-08 -0.16504790E-07 -0.29607435E-07 -0.11147316E-07 -0.42942895E-07
  0.22860075E-07 -0.13382307E-07 -0.59264995E-08 -0.22867710E-08 -0.21247350E-08
 -0.36050233E-08  0.21906563E-07 -0.21809203E-07  0.93339615E-08  0.45327337E-07
  0.10479648E-07  0.41510455E-08  0.23763974E-07  0.23845173E-07  0.13586969E-07
  0.13375796E-07  0.17739059E-07 -0.32618408E-08 -0.50774633E-07  0.52310704E-08
  0.77470278E-08 -0.41394020E-07  0.85408368E-08 -0.63935613E-09 -0.96604196E-08
 -0.11439121E-07  0.71361035E-08  0.93849825E-08  0.29614236E-08  0.69217347E-08
 -0.20107388E-07 -0.16888861E-07  0.10229116E-07 -0.12850602E-07 -0.62541591E-08
  0.25817258E-07 -0.37540858E-07 -0.15277134E-07 -0.38622382E-07  0.30085838E-08
 -0.21017692E-08  0.20062799E-07  0.36290587E-07 -0.46246839E-08  0.52200285E-09
  0.97960040E-09 -0.40977786E-08  0.14386559E-07  0.12188796E-07 -0.12794078E-07
 -0.10133214E-08  0.14159080E-08  0.65060171E-08 -0.14791550E-07  0.37772961E-07
  0.41882758E-08  0.25618124E-07 -0.21673693E-07  0.11364350E-07  0.98561788E-08
  0.53804513E-08 -0.33632882E-07 -0.15223778E-07  0.25367317E-07  0.50924602E-08
  0.15353610E-07 -0.10960981E-07 -0.43536668E-08 -0.11129714E-07  0.39903172E-07
  0.88382061E-08 -0.86830811E-08 -0.23902564E-07  0.26067605E-07  0.18207254E-07
  0.10204966E-07 -0.44189088E-08 -0.31825207E-07 -0.11812285E-07  0.12791816E-07
  0.15584461E-07 -0.47779632E-07 -0.72112432E-08  0.32264812E-08 -0.10139234E-08

  0.28207409E-09  0.38480328E-08  0.93047277E-10  0.27227954E-09  0.67147239E-10
 -0.24823606E-09  0.24304839E-09 -0.24470947E-09  0.61654475E-10 -0.26200091E-09
  0.56605167E-08  0.41078200E-09 -0.84964634E-09 -0.15302781E-10  0.31095824E-10
 -0.30611888E-09 -0.13123863E-09  0.92638360E-10  0.10770439E-08  0.43969585E-08
  0.21714688E-10 -0.38547390E-09 -0.34742875E-09  0.99647999E-11  0.16072646E-09
  0.98735058E-10  0.70571101E-10 -0.27955847E-09  0.54465642E-08 -0.62683906E-09
 -0.27648415E-08 -0.25748769E-08  0.44796344E-09  0.20309934E-07  0.15645138E-08
 -0.63033981E-09  0.67472325E-09  0.59772815E-08  0.23853441E-09 -0.97775451E-10
 -0.25672675E-10 -0.23071327E-09  0.56195318E-09  0.29377042E-09  0.29236190E-09
 -0.14018463E-09  0.29851328E-08  0.14826689E-09 -0.71276105E-09 -0.17171358E-09
  0.43701748E-10  0.26761255E-09 -0.21114030E-09  0.11954204E-09 -0.43875676E-09
  0.47269942E-08  0.11613257E-09 -0.47536707E-09 -0.84084041E-10 -0.20266711E-10
  0.33949200E-09 -0.93051061E-10  0.12745319E-09  0.93750683E-09  0.42204960E-08
  0.41076114E-09  0.29513503E-09 -0.31678340E-09  0.33163170E-10 -0.77163775E-09
  0.25566153E-09  0.16062455E-09  0.29583398E-09  0.41686562E-08  0.21275802E-09
 -0.65794725E-09 -0.87863683E-09  0.88531496E-10  0.35879614E-09  0.10351503E-09
  0.81579364E-10  0.35737786E-09  0.50455412E-08  0.15587672E-09 -0.30423134E-09
  0.52910080E-09  0.30229920E-10 -0.12960546E-09  0.36133222E-09  0.15783548E-09
 -0.25275057E-08  0.47965960E-08  0.46919626E-09  0.93355921E-10 -0.98298869E-10
 -0.33901555E-10  0.68024180E-10  0.46196768E-10  0.81172461E-10 -0.15210321E-08
  0.47849644E-08  0.65863569E-09 -0.34821291E-09 -0.35304115E-09  0.28427112E-10
  0.20352052E-09 -0.26478891E-09  0.31794644E-09 -0.21586146E-09  0.48410625E-08
  0.87324480E-11 -0.11430143E-08 -0.29238533E-10  0.33192455E-09 -0.33236814E-10
  0.39801922E-09 -0.54466997E-10 -0.79994317E-09  0.51478824E-08  0.49176860E-09
  0.19723838E-12 -0.13381683E-09  0.34857923E-12 -0.11787195E-09  0.19223147E-09
  0.46079129E-10  0.21174110E-09  0.42426438E-08  0.26257691E-09  0.56192003E-10
 -0.54983338E-09 -0.62729358E-10  0.14234226E-09 -0.55376399E-10  0.35109499E-09
  0.81532333E-08 -0.34504318E-07 -0.27954350E-09 -0.11793777E-07 -0.44544008E-08
  0.16317115E-07  0.30649690E-07  0.96989270E-08 -0.11540478E-07 -0.10764706E-07
  0.16371511E-07 -0.18059885E-07 -0.15283524E-07 -0.14890141E-07  0.82715750E-08
 -0.11814150E-07  0.70915190E-08 -0.18054297E-07 -0.29619535E-07 -0.23199737E-07
 -0.15706897E-07  0.30726724E-08  0.76087344E-08 -0.34246296E-08  0.67382767E-08
  0.12592610E-07 -0.16738579E-07  0.30118329E-07 -0.16506459E-09  0.10649021E-07
 -0.16748332E-07 -0.18439513E-07  0.10878066E-07  0.52746440E-09  0.11125256E-07
 -0.55629012E-08 -0.17799016E-07  0.56284685E-08  0.54412643E-08 -0.14832612E-07
 -0.31623381E-07 -0.77507647E-08  0.29807189E-08 -0.78882470E-09  0.44579255E-08
  0.28580859E-07  0.18051799E-07  0.11476845E-07 -0.30621686E-07 -0.23658034E-07
  0.31204215E-08  0.23297155E-07  0.13668434E-07 -0.23842475E-07 -0.35317692E-07
 -0.11866417E-07  0.68699766E-08 -0.25176744E-07 -0.45627893E-08  0.70800606E-08
 -0.11358382E-07  0.21836597E-07 -0.35130037E-09 -0.40100423E-07 -0.42585546E-07
  0.25385218E-07 -0.89626586E-08  0.23070895E-07  0.29710897E-08 -0.27481084E-07
  0.25592804E-07  0.24682171E-07  0.11769316E-07 -0.41742025E-07 -0.47807831E-08
  0.38514863E-08 -0.23521484E-07  0.51209922E-08  0.85277245E-07  0.71692340E-08
  0.43279620E-07 -0.38176411E-07  0.43722006E-07 -0.29655085E-08  0.14708156E-08
  0.50562077E-07 -0.14290705E-07  0.27153028E-07  0.22963253E-07  0.22146852E-07

 -0.17535674E-08  0.23127331E-08  0.46944099E-09 -0.16247385E-09  0.21261368E-09
 -0.26233108E-09 -0.51202535E-11 -0.11148019E-09 -0.14573533E-09 -0.11547791E-09
  0.22786597E-08  0.21859536E-09 -0.25312565E-09  0.38730309E-09  0.74110199E-10
  0.12740715E-09 -0.44774196E-09  0.87254443E-10  0.12205713E-09  0.16106423E-08
  0.33542204E-09  0.25209593E-09  0.15941868E-09  0.75156165E-10  0.56992675E-10
 -0.53427220E-09  0.28379257E-10  0.74039880E-11  0.12618447E-08  0.91971393E-09
 -0.55763378E-09 -0.10413792E-08  0.19340218E-08  0.15645138E-08  0.19348153E-07
 -0.17648242E-08 -0.10305586E-08  0.23107443E-08 -0.22003373E-10 -0.36759212E-09
 -0.22537267E-09  0.33907626E-09 -0.46711116E-09 -0.14689901E-09  0.53969361E-10
  0.89046180E-10  0.11286266E-08 -0.30523014E-09  0.18938304E-09  0.24424014E-10
 -0.28852525E-09 -0.15139497E-09 -0.66421106E-09  0.78523121E-10  0.97972471E-09
  0.10477358E-08 -0.53863850E-09  0.93677906E-11  0.86242907E-10 -0.22115618E-09
 -0.13327696E-09 -0.71520376E-09  0.53425065E-10 -0.84390736E-09  0.23163352E-08
 -0.35896124E-09  0.76711292E-09 -0.34215284E-09  0.78190881E-09  0.26171854E-09
 -0.10061908E-08  0.47823478E-09  0.23174722E-09  0.12112171E-08  0.19903749E-09
 -0.51314351E-09 -0.77491909E-11 -0.33929465E-09  0.41501312E-10 -0.13044092E-09
 -0.23448349E-09  0.68266973E-09  0.20598158E-08  0.30040282E-11 -0.24872699E-09
  0.23690052E-09 -0.49816194E-09 -0.18344088E-09 -0.16096607E-09 -0.34415160E-10
 -0.13265053E-09  0.21324650E-08  0.43488243E-09  0.68908902E-09 -0.16658016E-09
  0.32083139E-09 -0.30846314E-09 -0.78109514E-09  0.31268810E-09  0.11340866E-08
  0.13103194E-08  0.15747110E-08 -0.24934218E-09  0.19513090E-09 -0.62277740E-10
  0.29212317E-09 -0.23165151E-09  0.15119125E-09 -0.21055224E-09  0.11941115E-08
 -0.99001457E-09  0.15705158E-09 -0.17778509E-09  0.29573513E-09  0.44920644E-09
 -0.61524118E-09  0.18600338E-09  0.13708936E-09  0.24769912E-08 -0.69235558E-09
  0.11606485E-09 -0.14377796E-10  0.22192493E-09 -0.36143502E-09 -0.67252920E-09
 -0.30438786E-09  0.53106318E-09  0.19379512E-08  0.12832044E-09  0.11447615E-08
 -0.38168064E-11 -0.19453654E-10 -0.22001806E-09 -0.58067295E-09 -0.67631307E-10
  0.69369158E-08 -0.19165498E-07 -0.98018354E-08  0.19358503E-07 -0.14840259E-07
 -0.16571515E-07  0.81165044E-08 -0.40623019E-08  0.72059271E-08  0.21495083E-07
  0.16699516E-07 -0.21325628E-07  0.60043992E-08  0.70768077E-08  0.99155942E-09
 -0.57477653E-08  0.10570637E-08  0.14860282E-07  0.44469429E-08  0.79172186E-08
  0.76144313E-08 -0.26465474E-07  0.22654784E-07  0.72787988E-08 -0.69907095E-08
  0.17143992E-08 -0.22889216E-07 -0.41179776E-08 -0.91135363E-08 -0.62522018E-08
  0.16295133E-07 -0.18542865E-07  0.14688242E-07 -0.42357044E-09 -0.25157655E-07
 -0.21557148E-07 -0.10609970E-07 -0.26910638E-07  0.12573668E-08 -0.10785321E-07
  0.13742072E-07 -0.20308237E-07 -0.31379325E-07  0.25608632E-07 -0.24322490E-08
  0.83782017E-08 -0.97908783E-08 -0.19357670E-07 -0.21753131E-07 -0.49137586E-08
  0.83393661E-08  0.28441950E-07  0.11995390E-07 -0.62460676E-08 -0.94940109E-08
 -0.71383920E-08  0.21519430E-07 -0.33124424E-07 -0.77619575E-08  0.28258168E-07
 -0.22227195E-07  0.46757318E-07 -0.22886045E-07 -0.20989286E-07 -0.82692529E-08
  0.20842467E-07  0.11043227E-07 -0.27505124E-08  0.16505152E-07 -0.12756419E-07
  0.16223258E-07 -0.14031297E-08  0.33881529E-07  0.62526600E-09 -0.14252506E-07
  0.48678406E-08 -0.16285386E-07  0.12261946E-07  0.15755193E-08  0.25086840E-08
  0.12355526E-07 -0.18428076E-07  0.28556002E-07 -0.21726220E-07  0.40139968E-07
  0.13690808E-08 -0.31608966E-08 -0.10794239E-07 -0.36885474E-07 -0.18184721E-08

  0.13744599E-09  0.70956194E-09 -0.94967638E-09  0.10155168E-09 -0.29864014E-09
 -0.68677231E-10  0.59893277E-10 -0.37444011E-10 -0.24270915E-09  0.43832337E-09
  0.13017090E-08  0.16042813E-10 -0.58951510E-12  0.58938053E-10  0.12518384E-09
  0.99165917E-11 -0.14179934E-09  0.24152835E-09 -0.12149378E-11  0.18682419E-08
 -0.79114076E-09  0.11523075E-09  0.48976038E-09 -0.93774353E-10 -0.32793450E-10
 -0.14614747E-09  0.29406448E-09 -0.62664471E-09  0.19558538E-08 -0.78831987E-09
 -0.36572770E-09  0.26575803E-08  0.20345847E-08 -0.63033981E-09 -0.17648242E-08
  0.18133169E-07  0.16348706E-09  0.44065494E-09  0.46781957E-09  0.12149017E-09
  0.59964384E-09  0.51318227E-10  0.17080271E-09 -0.37859819E-09  0.31304777E-09
  0.16459773E-09  0.11490958E-08 -0.33280889E-09 -0.14780734E-09  0.31435493E-10
  0.37804759E-09  0.18111182E-09 -0.18457444E-09  0.13168080E-09  0.93081509E-10
  0.15040382E-08  0.39232913E-09  0.48893455E-10 -0.28234979E-09  0.20316055E-09
  0.67153858E-11 -0.57493078E-10  0.22621754E-10  0.22794704E-09  0.67337178E-09
  0.13982141E-08  0.12074792E-09  0.25940455E-09  0.19520090E-09  0.23000923E-09
  0.11005459E-09  0.83031008E-10  0.21754638E-09  0.12400356E-08  0.82883235E-09
 -0.17692838E-09  0.20815614E-09  0.64637383E-09  0.80216770E-10 -0.33379476E-09
  0.29970904E-09 -0.17285848E-09  0.77540493E-09 -0.59057535E-09  0.17715377E-09
  0.40729906E-09  0.24966633E-09  0.16698397E-09  0.14399182E-09  0.63471063E-09
  0.56706454E-09  0.15750145E-08 -0.29977440E-08 -0.77620565E-10  0.12497471E-09
  0.24030876E-09  0.75854928E-10  0.16076453E-09  0.23822595E-09  0.51693482E-09
  0.12883949E-08 -0.30160414E-09 -0.21129483E-10 -0.10095656E-09 -0.22126828E-09
  0.39268973E-09 -0.15492121E-09  0.49131540E-10  0.11512287E-09  0.81232197E-09
 -0.59537677E-09  0.48405507E-09 -0.20174666E-09 -0.15092829E-09 -0.89465851E-10
  0.17312341E-09 -0.33274406E-09  0.42183859E-09  0.14020967E-08 -0.89804419E-10
  0.32577331E-09 -0.18493744E-09 -0.11923893E-11  0.14721697E-09 -0.10520157E-09
  0.18022711E-09  0.30549080E-09  0.29541666E-08  0.72442324E-09 -0.26564498E-09
  0.49683123E-09  0.42721263E-09  0.12214256E-09 -0.40178581E-10  0.21240742E-09
  0.64261769E-08  0.12888974E-07  0.29925760E-07 -0.21550708E-08 -0.13334066E-07
  0.27653322E-08 -0.16498246E-07  0.13663226E-07  0.58367613E-07 -0.18782056E-07
  0.39158307E-07  0.28115927E-07  0.33135200E-08 -0.58577536E-08  0.20375684E-07
 -0.93369918E-08  0.38737180E-08 -0.34499753E-09  0.90618079E-08 -0.35616307E-07
  0.22514483E-07  0.54497911E-08  0.14007558E-07  0.52443367E-08 -0.26070498E-07
 -0.14292706E-11  0.18493043E-07  0.10654864E-07  0.99122322E-08 -0.15374362E-07
  0.11794108E-07  0.49659607E-08 -0.21548713E-07 -0.12933309E-07 -0.46454699E-08
  0.56689387E-08 -0.89501670E-08  0.15889430E-07 -0.23605687E-07 -0.28436521E-08
 -0.12345223E-07  0.18285698E-07  0.13395585E-07 -0.26137555E-07 -0.10019581E-07
 -0.16276010E-10  0.99658932E-08  0.13256629E-08  0.79384186E-09  0.27012068E-08
  0.13973278E-07 -0.30994536E-07 -0.19496185E-07  0.29645093E-07  0.73397353E-08
 -0.18583409E-07 -0.20078113E-07  0.15129524E-07  0.25354856E-08  0.55303172E-08
 -0.72848054E-08 -0.95394515E-09 -0.30890068E-08  0.34826523E-07 -0.36719997E-07
 -0.20930312E-07  0.21927894E-07 -0.39232105E-08 -0.25640802E-07  0.37027274E-07
  0.17389559E-08 -0.11569031E-07 -0.26980113E-08 -0.91835961E-08  0.19728674E-07
  0.36748108E-08  0.84553394E-08 -0.54241727E-08  0.33832713E-07  0.23134830E-07
  0.31012255E-07  0.81436198E-08 -0.73614904E-08 -0.16398316E-07  0.90168357E-08
  0.83576619E-08  0.60776269E-08  0.39285577E-07  0.28799982E-08  0.14260160E-07

  0.41394111E-08 -0.35538482E-08  0.15807665E-09  0.12209863E-08  0.63369852E-10
 -0.34406802E-09  0.29594260E-09 -0.64302471E-09 -0.11605498E-09  0.38769711E-08
 -0.38090456E-08 -0.12291623E-08 -0.15423187E-09 -0.82100283E-09  0.64840518E-10
  0.49841509E-09 -0.10298504E-09 -0.17228379E-09  0.16242703E-08 -0.54487906E-08
  0.71021672E-09  0.17530269E-08 -0.61868577E-09 -0.38245368E-10  0.62442381E-09
  0.31911107E-09  0.39359498E-09 -0.31999962E-08 -0.48632915E-08 -0.62446672E-09
 -0.44199431E-09  0.58382437E-09 -0.25563643E-09  0.67472325E-09 -0.10305586E-08
  0.16348706E-09  0.96670031E-07 -0.66804677E-08 -0.29575306E-08  0.25835475E-10
 -0.86889086E-10 -0.23441191E-09  0.87051505E-09 -0.80846435E-09  0.24501443E-09
  0.39980180E-08 -0.27098742E-08  0.10408804E-08 -0.18016029E-08  0.86106023E-09
 -0.58115534E-09  0.63304850E-10  0.59552775E-09 -0.35687471E-09 -0.44029902E-09
 -0.36752931E-08  0.69771073E-09  0.15712578E-09 -0.15437054E-10  0.15160909E-09
  0.52693602E-09  0.38397102E-10 -0.50669749E-09  0.43121090E-08 -0.39926453E-08
  0.18384113E-09 -0.29265527E-08 -0.49346777E-09  0.39016929E-09 -0.11528753E-08
  0.24046183E-09 -0.49946909E-10  0.11565772E-08 -0.36786789E-08 -0.35900132E-09
 -0.22295873E-08  0.29400147E-09  0.35205657E-10 -0.16172854E-08 -0.11866209E-09
  0.35191810E-09 -0.11413610E-08 -0.32244250E-08  0.13083748E-08 -0.11801106E-09
 -0.87622534E-10  0.63598126E-10  0.57583675E-09 -0.22158255E-11  0.17052260E-09
  0.24418779E-09 -0.29469251E-08  0.35923589E-09  0.21075289E-08 -0.93664256E-10
 -0.30024562E-09 -0.11440233E-08  0.96295127E-10 -0.11218482E-09  0.66849711E-08
 -0.16010902E-08 -0.16961567E-08  0.29712930E-09 -0.88929907E-09  0.71328074E-09
 -0.13382292E-08 -0.66360434E-09 -0.44541248E-09 -0.32057645E-08 -0.15624761E-08
  0.37742433E-09 -0.34743707E-08  0.55640797E-09  0.71061944E-09  0.13888081E-08
  0.11443816E-08 -0.41071228E-09  0.31861830E-10 -0.29880569E-08 -0.36954469E-10
  0.13013924E-08  0.33390574E-09 -0.76364536E-09 -0.51066015E-09  0.16119536E-08
 -0.14883189E-09  0.12120845E-08 -0.39072956E-08 -0.84734267E-09 -0.71782674E-09
 -0.82381762E-09  0.18690577E-09  0.41974015E-09 -0.23476268E-08 -0.39116204E-09
 -0.31002958E-08 -0.49312770E-07 -0.43941817E-07 -0.88308057E-07 -0.24385393E-07
  0.20084268E-07  0.43971286E-07 -0.21047883E-09  0.44631112E-07 -0.17386025E-07
 -0.35953452E-07 -0.43705895E-07  0.48754039E-07  0.47321217E-09  0.55318753E-08
 -0.96423446E-07  0.51860900E-08  0.28212334E-08 -0.45785065E-07  0.19870952E-07
 -0.23139344E-08  0.17598060E-06 -0.73017753E-07  0.16727129E-07 -0.10329693E-07
 -0.52061279E-08 -0.50770971E-07 -0.52175505E-07  0.48254725E-07  0.46522884E-07
 -0.86642015E-08  0.92856719E-07  0.12852877E-07 -0.23134577E-07  0.52352847E-07
  0.38000811E-07  0.80475660E-07 -0.14159264E-07  0.32553905E-08 -0.27650344E-07
  0.53117524E-08 -0.24374315E-08 -0.10863152E-07 -0.77066190E-07 -0.51422872E-08
  0.86634890E-09 -0.90215060E-07  0.19749915E-07  0.52276396E-07  0.21410435E-07
 -0.19964091E-07  0.17727592E-06 -0.18304314E-09 -0.37718505E-07  0.65524538E-07
 -0.52211549E-08  0.69588756E-07 -0.21586256E-06  0.37844163E-07  0.25652189E-07
 -0.12259886E-07  0.10661739E-06 -0.10560098E-07 -0.43035354E-07 -0.93520391E-07
  0.34135385E-08  0.63598630E-07  0.29411984E-07 -0.17069623E-07  0.16069862E-07
  0.25391617E-07  0.32844222E-07 -0.95548467E-07  0.22357861E-06  0.13303790E-06
 -0.26257718E-06  0.13510215E-06 -0.14607642E-08  0.55504361E-07 -0.13651746E-06
  0.83313133E-07 -0.19085176E-06  0.51320004E-07 -0.86877576E-07  0.51456815E-07
 -0.25077078E-07  0.82507033E-08 -0.49685798E-07  0.56263053E-07  0.20094160E-08

 -0.55279286E-09  0.21879061E-05 -0.46496919E-08  0.53780242E-08  0.15673083E-08
  0.27217151E-08 -0.69763880E-08 -0.21921167E-08 -0.34512874E-08  0.26941948E-08
  0.21705984E-05 -0.67309496E-08  0.27344857E-09 -0.87768577E-08  0.31995669E-08
 -0.42394204E-08  0.19641565E-08  0.29236652E-08 -0.24045512E-08  0.21873238E-05
  0.60770475E-08  0.22897949E-08  0.97627895E-08 -0.59307232E-09  0.51533664E-08
  0.71338183E-09  0.71711222E-09  0.42632271E-08  0.21691809E-05  0.37293529E-08
  0.21696403E-08  0.46791831E-08 -0.94674085E-11  0.59772815E-08  0.23107443E-08
  0.44065494E-09 -0.66804677E-08  0.22721800E-05  0.31520541E-08  0.22269885E-08
 -0.11438328E-08 -0.86490032E-09  0.60501243E-11  0.21629085E-08  0.24484518E-09
  0.15061240E-09  0.21570308E-05  0.29555631E-08  0.13802686E-08  0.22883194E-08
  0.12400408E-08 -0.12617418E-08 -0.27463165E-08  0.45955812E-08  0.10231714E-07
  0.21446544E-05  0.70572684E-09 -0.64831954E-09 -0.50086501E-10  0.11991963E-08
 -0.26128392E-08 -0.21112556E-09  0.23111741E-08  0.46396207E-08  0.21728288E-05
  0.73921481E-08 -0.58851385E-08  0.88420616E-08  0.69132857E-09 -0.28834846E-08
 -0.12441739E-09 -0.18244174E-09 -0.12260258E-07  0.21416164E-05 -0.11173203E-07
  0.38712717E-08 -0.45705993E-08  0.12883666E-08 -0.84615016E-09 -0.89541505E-09
 -0.43249377E-09  0.89103366E-08  0.21525525E-05 -0.30569327E-08  0.70347323E-08
 -0.25331408E-08 -0.12793560E-08  0.45389981E-08  0.17966425E-09 -0.23443192E-08
 -0.16539024E-08  0.21883979E-05  0.13933164E-07 -0.13815781E-08  0.20572009E-09
  0.26783244E-08 -0.28550445E-08  0.77230884E-09  0.42014479E-09  0.10280503E-07
  0.21674309E-05 -0.44267488E-08 -0.30464983E-08  0.10139555E-07  0.89152516E-09
 -0.27242570E-08 -0.24715177E-08  0.24736604E-08  0.14808379E-08  0.21665199E-05
  0.16514277E-08  0.47412063E-08 -0.85681441E-08 -0.14742303E-10 -0.39219675E-08
  0.12526723E-08 -0.32797976E-08  0.16479118E-08  0.21743737E-05 -0.17996028E-08
  0.46978657E-08  0.13716117E-08  0.20287032E-08 -0.14498691E-08 -0.16791801E-08
  0.49341700E-08  0.57610271E-08  0.21780790E-05 -0.55256577E-08  0.32682939E-08
 -0.55529679E-08  0.23187226E-08  0.41103014E-09 -0.14859428E-08 -0.34677938E-08
 -0.55825732E-06 -0.98695327E-05  0.16138111E-05 -0.65872190E-08  0.21718627E-05
 -0.11083088E-06  0.15194177E-06 -0.48900164E-08  0.97327553E-08  0.16921590E-05
 -0.20029226E-05 -0.52449697E-06  0.25884925E-06  0.17534212E-08  0.48698787E-07
  0.57763530E-06 -0.48418470E-06  0.14722756E-07  0.19411199E-05 -0.33073348E-05
 -0.20302280E-06  0.53386364E-06 -0.67619119E-06 -0.59429585E-08  0.58477300E-08
  0.73158838E-06 -0.11645442E-05  0.39713221E-06 -0.78960631E-06  0.22699908E-07
 -0.37665151E-07 -0.52221575E-06  0.10400250E-06 -0.21031229E-06  0.44247623E-06
 -0.39466648E-06  0.15368696E-05 -0.33059236E-05 -0.20758328E-06 -0.66289501E-06
  0.24482692E-06  0.52145251E-06 -0.41761498E-06 -0.33974215E-06 -0.36673502E-06
  0.22105926E-06 -0.22809139E-05  0.54977587E-06  0.36086698E-06 -0.11785364E-05
  0.33355316E-06  0.82992968E-06 -0.21098653E-06  0.35527441E-06  0.18421729E-05
 -0.37831389E-05  0.49444614E-06  0.17692237E-06 -0.10293969E-05  0.56840778E-06
 -0.71419158E-07  0.12882357E-06  0.60095683E-06  0.11013023E-05 -0.24388589E-05
 -0.47228469E-06 -0.24660367E-06 -0.66927840E-06 -0.24488340E-07  0.13395062E-06
  0.19081368E-06 -0.53379784E-06  0.11119856E-05 -0.31168816E-05 -0.55069365E-06
 -0.30454139E-06 -0.10389105E-06  0.72975160E-06  0.54774023E-06 -0.52209640E-06
  0.34430182E-06  0.19403988E-06 -0.17355602E-05  0.44698064E-06 -0.85008173E-07
  0.68815212E-06  0.24937335E-06 -0.75403476E-06  0.90290692E-06 -0.88173027E-06

  0.90551729E-09  0.63816746E-08 -0.56359349E-09 -0.35423284E-09 -0.34271722E-09
 -0.24557240E-09 -0.12161905E-09  0.21949431E-09  0.17543995E-11 -0.30618245E-08
  0.89405692E-08  0.20060245E-08 -0.61997595E-09 -0.27917528E-10  0.70483601E-09
 -0.16643515E-09  0.19235341E-09  0.66780959E-09  0.10573638E-08  0.10964889E-07
 -0.55967272E-09  0.57002667E-09 -0.52259746E-10 -0.47940900E-09  0.43918822E-09
  0.82465465E-09  0.91086057E-09 -0.10187165E-09  0.83865433E-08 -0.17697370E-08
 -0.12649770E-08  0.30426361E-09  0.70737117E-09  0.23853441E-09 -0.22003373E-10
  0.46781957E-09 -0.29575306E-08  0.31520541E-08  0.89484579E-07 -0.34185639E-09
  0.52160300E-09 -0.89980300E-09  0.11317664E-09 -0.19540013E-09  0.44755392E-09
  0.94016671E-09  0.72536792E-08  0.17436451E-08  0.71782246E-09 -0.31666136E-09
  0.51356900E-09 -0.29946672E-09 -0.11880167E-08  0.40962694E-09  0.23020968E-09
  0.62843158E-08 -0.17365216E-08 -0.40632694E-09  0.27008943E-09  0.54579969E-09
 -0.25872746E-09  0.40693634E-09  0.39786391E-09 -0.62117941E-10  0.85505376E-08
  0.23486347E-08  0.27921979E-09  0.37947423E-09 -0.28210432E-09 -0.14100590E-09
 -0.10728663E-08  0.93947385E-10 -0.57181623E-09  0.97045003E-08 -0.17023119E-08
  0.20763467E-09  0.39727395E-09 -0.10222529E-08  0.45271653E-09 -0.75707484E-09
 -0.79249139E-09  0.18890266E-08  0.76494315E-08 -0.32877231E-08 -0.78415012E-09
  0.95215736E-09  0.71840309E-10  0.22720158E-09  0.17167568E-09  0.97967649E-09
  0.77235580E-09  0.10216842E-07  0.26520501E-08 -0.56915628E-10 -0.71363043E-10
  0.36992024E-09  0.11181170E-09  0.66538444E-09  0.31334550E-09 -0.18013811E-08
  0.61557982E-08  0.35780698E-08  0.41580721E-09 -0.25092674E-08  0.20687544E-09
 -0.35772580E-09  0.86606111E-09  0.78386885E-09  0.49996935E-10  0.64502807E-08
  0.28657100E-09  0.63058149E-09  0.95375624E-09 -0.74075671E-09 -0.30552988E-09
  0.34949379E-09 -0.74656646E-09 -0.40020386E-09  0.93175414E-08 -0.16887513E-09
  0.59517741E-09 -0.54645651E-09  0.16775695E-08  0.27482049E-09 -0.48867787E-09
 -0.44748654E-09 -0.16157604E-08  0.83761707E-08 -0.19878094E-09 -0.14024206E-08
  0.49309016E-10 -0.16726653E-08 -0.45785351E-09 -0.77698828E-10 -0.21961721E-09
 -0.77274039E-07 -0.53748572E-07  0.44326434E-07 -0.20584977E-07 -0.59528653E-07
  0.11282143E-06  0.50376422E-07 -0.19585875E-08  0.12688468E-07 -0.86744031E-07
  0.52276932E-07 -0.19920623E-07 -0.31705792E-07  0.92173421E-08  0.82125860E-07
  0.54077431E-09  0.24641832E-07 -0.54501063E-07 -0.33749900E-08  0.54277680E-07
  0.45852993E-07  0.46022052E-08  0.56296008E-07 -0.14372632E-07 -0.83344236E-07
  0.10422372E-06 -0.45952551E-07  0.39199514E-07 -0.52480282E-07 -0.10350167E-06
 -0.21207250E-07  0.18306753E-07  0.51238436E-07  0.25161764E-07  0.61998704E-07
 -0.95822270E-08 -0.48443140E-08  0.74602071E-08  0.21057717E-07 -0.54185316E-07
  0.21966846E-07 -0.34535349E-07  0.15115098E-07 -0.43364406E-07 -0.36334119E-07
  0.28758768E-07 -0.16547922E-07  0.98983868E-08 -0.31895448E-07  0.28684763E-07
 -0.62371542E-09 -0.63250121E-07  0.34808061E-08  0.20974344E-06  0.80806704E-07
 -0.66840087E-07 -0.95791947E-07  0.54180351E-07  0.28114989E-08  0.64931218E-07
 -0.13462950E-07 -0.39937447E-07 -0.32074321E-07  0.19964458E-07 -0.99017410E-07
 -0.14111624E-06  0.37165966E-07  0.18943206E-07 -0.49022099E-07  0.44760823E-07
 -0.32756037E-09 -0.59065490E-07  0.12504848E-06  0.44275024E-07 -0.12582238E-06
 -0.39546437E-07  0.15581540E-06 -0.20882233E-06  0.54949122E-07 -0.31268506E-07
 -0.29944350E-07 -0.63480801E-07  0.12559602E-07 -0.88754873E-07  0.23153386E-07
  0.10415876E-06 -0.19732174E-07 -0.38457278E-08 -0.13225668E-07  0.97423460E-08

  0.12203832E-10  0.29458035E-08 -0.18600814E-09  0.37576253E-09  0.53540622E-09
  0.27485149E-09  0.32968515E-09 -0.17301385E-09 -0.28461330E-09 -0.32499610E-09
  0.17220023E-08 -0.26698134E-09 -0.27751784E-09  0.10544002E-08  0.48580445E-09
  0.22426699E-09 -0.28523186E-09  0.20027359E-09 -0.10522107E-08  0.25369303E-08
  0.18836034E-09 -0.48013763E-09  0.57356739E-09  0.63111810E-09 -0.60888373E-10
  0.35900020E-09 -0.15698161E-09  0.15121321E-08  0.26462250E-08  0.21043672E-09
  0.40225481E-09  0.64913511E-09  0.22342475E-09 -0.97775451E-10 -0.36759212E-09
  0.12149017E-09  0.25835475E-10  0.22269885E-08 -0.34185639E-09  0.31541129E-07
 -0.75296712E-08 -0.69066161E-08 -0.81081391E-09 -0.27000252E-08  0.39269165E-09
 -0.31233455E-08  0.23167106E-08 -0.36051456E-09 -0.12551747E-08  0.93283760E-09
  0.10410305E-08 -0.14140259E-09  0.37736201E-10 -0.19374103E-09 -0.34982623E-08
  0.22932131E-08 -0.21540731E-09 -0.14232081E-09  0.60729792E-09  0.65598688E-09
 -0.49867971E-09  0.38474410E-09  0.14776409E-09  0.13525732E-08  0.16214723E-08
 -0.70009758E-09 -0.12452057E-08  0.11295620E-08  0.58178129E-09 -0.21014152E-09
  0.15361339E-10 -0.12135974E-09  0.14845406E-09  0.23888187E-08  0.37902423E-09
 -0.37844905E-09  0.84611774E-09  0.69314570E-09  0.42229105E-09  0.10006403E-09
 -0.47465345E-10  0.89907739E-09  0.35368259E-08 -0.51241302E-09 -0.11476164E-08
  0.74001141E-09  0.77563119E-09  0.31681755E-09 -0.26216627E-09 -0.15457596E-09
  0.97572464E-09  0.25022977E-08 -0.18415007E-09 -0.51271206E-09  0.83968753E-09
  0.61419215E-09  0.48430548E-10  0.46057930E-09  0.64809959E-10  0.10388243E-08
  0.28640704E-08 -0.11741193E-08  0.18227536E-08 -0.34713313E-09  0.62841086E-09
 -0.13341705E-09 -0.68631652E-09 -0.23830911E-09 -0.12596170E-09  0.12735472E-08
  0.16517504E-09 -0.14087986E-08  0.84118862E-09  0.96972403E-09 -0.43381106E-09
 -0.12944350E-09  0.34782393E-09  0.61696920E-09  0.29873045E-08  0.56657310E-09
  0.45377056E-09  0.99512335E-09  0.28757282E-09 -0.26341218E-11  0.66494129E-09
 -0.45034301E-10 -0.15292000E-08  0.28361175E-08 -0.10335480E-09 -0.17131726E-08
  0.59261343E-09  0.55713951E-09 -0.12527974E-09 -0.52985692E-09  0.89217278E-10
  0.11898489E-07  0.96007112E-08 -0.13210620E-07 -0.12478772E-06  0.22761863E-08
  0.84565086E-08  0.18462646E-07 -0.79247944E-08  0.27599903E-07  0.58117571E-07
 -0.11093791E-07 -0.44118453E-08 -0.29985969E-07  0.11080563E-07 -0.20781897E-08
 -0.11287957E-07  0.70460536E-08  0.15202032E-07  0.44270526E-07 -0.41776956E-07
 -0.41299375E-08 -0.18355226E-08 -0.13488726E-07 -0.25952159E-10 -0.94344083E-08
  0.25185246E-07 -0.35097810E-08  0.94343703E-08  0.85922166E-08  0.14292920E-07
 -0.57364848E-07  0.17603794E-07  0.27048902E-08  0.32723708E-07 -0.65716585E-08
 -0.78872831E-08 -0.38813726E-07 -0.36543775E-08 -0.91705286E-08 -0.26181916E-07
 -0.80368355E-08  0.15443524E-07  0.97449778E-08  0.15719963E-07 -0.15386464E-08
 -0.38010567E-07  0.27910428E-07  0.93744232E-08  0.36543142E-07  0.21745322E-07
 -0.11316832E-07  0.52124744E-09 -0.23709536E-08 -0.12929352E-09  0.51543415E-07
 -0.72576483E-09  0.29484299E-07 -0.50657466E-07 -0.55637302E-08 -0.84458980E-08
  0.39517164E-07  0.22699529E-07 -0.11599747E-07  0.16179343E-07  0.40969249E-07
  0.37166711E-08  0.80706010E-07 -0.28283853E-07 -0.73474917E-08 -0.25140349E-07
 -0.18730190E-07  0.30844134E-08  0.64157375E-07 -0.28754032E-07 -0.47664730E-08
  0.16228415E-07 -0.39483836E-07  0.52481198E-08  0.23256514E-07  0.40558687E-07
 -0.38216233E-07 -0.39164716E-07 -0.37766010E-07  0.10078664E-07 -0.44181674E-07
 -0.78430041E-09  0.85001905E-08  0.52977990E-08 -0.17163195E-07 -0.30534553E-09

  0.18053611E-09 -0.21350044E-08 -0.16858295E-09  0.58447106E-09 -0.14148701E-08
  0.85798901E-09  0.62259460E-10 -0.56905654E-10  0.58293675E-09 -0.21730299E-09
 -0.27237357E-08  0.10390499E-09  0.83111537E-09 -0.12880637E-08  0.65287065E-09
 -0.74390678E-09  0.17009430E-09  0.83253979E-12  0.16117490E-09 -0.28077397E-08
 -0.25269917E-10  0.52196872E-09 -0.15120280E-09  0.47643713E-09  0.29450484E-09
 -0.25937973E-10 -0.55589344E-10  0.41121579E-09 -0.31891081E-08  0.60748265E-09
  0.69944764E-09 -0.66592098E-09  0.50803839E-10 -0.25672675E-10 -0.22537267E-09
  0.59964384E-09 -0.86889086E-10 -0.11438328E-08  0.52160300E-09 -0.75296712E-08
  0.32869124E-07 -0.79915066E-08 -0.98300528E-09 -0.31137082E-09 -0.27924767E-08
  0.51701836E-11 -0.28134420E-08  0.19302107E-09  0.77133206E-09 -0.26419707E-08
  0.10515380E-08  0.11063561E-09  0.65630525E-10  0.46597800E-09  0.45598573E-10
 -0.40404875E-08  0.99573116E-09  0.62274463E-09 -0.13727424E-08  0.78931526E-09
  0.40098178E-09  0.17345087E-09 -0.54254144E-09 -0.57793517E-09 -0.31170821E-08
  0.36000724E-09  0.12361458E-08 -0.26667055E-08  0.10998705E-08  0.11061900E-09
  0.16123450E-09  0.50520052E-09  0.39907829E-09 -0.65150212E-09 -0.71020878E-09
  0.59068302E-09 -0.58261046E-09  0.23872219E-09  0.63517908E-09  0.13762751E-09
  0.40903195E-09  0.69019790E-10 -0.36754650E-08 -0.55429597E-09  0.83189436E-09
 -0.11898182E-08  0.45755517E-09  0.12221898E-09 -0.44627021E-10 -0.64512235E-10
  0.37278001E-09 -0.26148886E-08 -0.24605397E-09  0.76865439E-09 -0.10575393E-08
  0.41113186E-09 -0.17905882E-09 -0.19721350E-09 -0.23513166E-09  0.46823242E-09
 -0.10087748E-08  0.52154071E-09 -0.45114445E-09  0.33137418E-08  0.45041594E-09
 -0.56487190E-09  0.21355853E-09 -0.76135886E-10 -0.28318907E-09 -0.29590486E-08
  0.94564520E-09  0.10025434E-08 -0.21454929E-08  0.10072024E-08 -0.12545052E-09
  0.48702530E-10  0.10097484E-09  0.32927853E-09 -0.24221392E-08 -0.59298824E-09
  0.10768941E-08 -0.20603933E-08  0.60478937E-09  0.22819323E-09 -0.42368039E-09
 -0.48062818E-09  0.42818750E-09 -0.87268300E-09  0.94094481E-09  0.60090123E-09
 -0.19459907E-08  0.73722002E-09 -0.48962780E-10  0.38280076E-09 -0.10157958E-08
 -0.19762947E-07  0.23070481E-07 -0.16543415E-08  0.14770689E-07 -0.90370706E-07
 -0.15207919E-07  0.95881277E-08 -0.96244721E-08 -0.11980995E-07 -0.25421550E-07
  0.21967471E-07  0.17445642E-08 -0.53032842E-08  0.54743794E-07 -0.24905591E-07
 -0.10453116E-07 -0.16804707E-07 -0.78242245E-08 -0.13220644E-07 -0.99402482E-08
  0.16231833E-07 -0.13030725E-07  0.32299985E-07 -0.13464530E-07  0.12328771E-07
 -0.12949045E-07  0.53846641E-07 -0.11123953E-07 -0.52169594E-08 -0.16586633E-07
  0.25651417E-07  0.46278243E-09 -0.30998464E-07 -0.27522267E-07  0.68982861E-08
  0.51195464E-08 -0.23167658E-07 -0.50945352E-08  0.83098975E-08  0.10336683E-07
  0.61764430E-07 -0.27845985E-07 -0.33770642E-07 -0.59406747E-08  0.37235410E-07
  0.18972619E-07 -0.41911463E-07 -0.51535787E-08  0.23208910E-07 -0.44502696E-07
  0.10885025E-07 -0.35217404E-07 -0.84572163E-08 -0.30901948E-07 -0.14173171E-07
  0.32774803E-08 -0.79243706E-08  0.12635273E-07 -0.18885949E-07 -0.55956090E-08
 -0.25586752E-08 -0.16588555E-07  0.84936521E-08  0.22836536E-07 -0.14024332E-08
  0.26487293E-07  0.31781446E-08  0.28171689E-07 -0.27109904E-08  0.96558980E-08
  0.14482264E-07 -0.23953788E-07 -0.22975125E-07  0.27121019E-09 -0.42560632E-07
 -0.37780788E-07  0.61146306E-07 -0.22174100E-07  0.73550124E-08 -0.57147535E-07
 -0.50212324E-07  0.55416487E-08  0.51153930E-07  0.30180095E-07  0.11554964E-07
 -0.18728115E-07 -0.98231603E-08  0.42297474E-07  0.57461029E-08  0.28373404E-07

 -0.20025297E-09 -0.34182167E-09  0.73030824E-09  0.38577921E-09  0.65780802E-09
  0.79802477E-09 -0.20651190E-09 -0.10393062E-09  0.25913745E-09  0.35975623E-09
  0.12793457E-08  0.28968941E-09  0.84450522E-09  0.77640128E-09 -0.30583275E-09
 -0.20173683E-09 -0.38191005E-09 -0.37666969E-09 -0.32416567E-09  0.54725841E-09
  0.15743384E-08  0.50555940E-09  0.74644452E-09 -0.30117979E-09 -0.63861199E-10
  0.12995599E-10  0.44301706E-10  0.21297164E-09  0.74159080E-09 -0.14994219E-08
  0.17620661E-09  0.23503506E-09  0.19870371E-08 -0.23071327E-09  0.33907626E-09
  0.51318227E-10 -0.23441191E-09 -0.86490032E-09 -0.89980300E-09 -0.69066161E-08
 -0.79915066E-08  0.29842642E-07  0.15834632E-09  0.10144520E-09 -0.22265069E-08
  0.23668967E-09 -0.23691170E-09 -0.69236174E-09  0.15127885E-08  0.10474284E-08
 -0.20245893E-08 -0.21523395E-09 -0.18647010E-09  0.43200274E-09  0.99791902E-10
  0.20551471E-09 -0.14226675E-08  0.75573155E-09  0.80257995E-09 -0.89258456E-09
  0.35591238E-09 -0.28375835E-10 -0.20919604E-09  0.20830350E-09  0.11814298E-08
 -0.71710042E-09  0.48485571E-09  0.12050207E-08 -0.16425943E-08 -0.13734434E-09
 -0.33806938E-09  0.22098097E-09 -0.95345181E-10  0.75431372E-09  0.74335125E-09
  0.69138086E-09  0.81996264E-10 -0.69570040E-10 -0.52512471E-09 -0.52610003E-09
 -0.11753566E-09 -0.29512813E-10  0.24194957E-09 -0.18453005E-09  0.92473286E-09
  0.43820733E-09 -0.68075695E-09 -0.41767276E-09 -0.90013296E-10  0.82739614E-10
 -0.52616081E-09 -0.76151904E-09  0.82215050E-09  0.64423778E-09  0.61244867E-09
  0.61242698E-10  0.23736110E-10 -0.44391550E-09 -0.51192588E-09 -0.12638326E-09
 -0.10088352E-08  0.22392611E-08  0.55965048E-09  0.52729079E-09 -0.13734266E-08
  0.15838348E-09 -0.11163007E-10  0.12937819E-08  0.32988674E-09  0.57796743E-09
 -0.23086253E-08  0.13126228E-08  0.13469773E-08 -0.20809360E-08 -0.32582124E-09
 -0.41609789E-09 -0.49685150E-09 -0.66829572E-09  0.29292406E-09  0.11407944E-08
  0.41494183E-09  0.48353110E-09 -0.40828688E-09  0.72177220E-10  0.79171045E-09
 -0.29656151E-09  0.10388274E-08  0.25848716E-10  0.60073176E-09  0.72320851E-09
  0.76025459E-09  0.82779483E-09  0.10678844E-10 -0.99699203E-10 -0.30394789E-09
  0.15838862E-07  0.27373789E-07  0.34954654E-07  0.11084823E-07 -0.22715705E-07
  0.67866292E-07 -0.10510288E-07 -0.20162689E-07 -0.65670245E-07 -0.22079196E-07
 -0.15969371E-07 -0.10167211E-08 -0.73745880E-08 -0.24496627E-07  0.45557382E-07
  0.14847355E-07  0.70421928E-08  0.10566722E-07  0.82609623E-09  0.41876919E-07
 -0.20233530E-07 -0.18539623E-07 -0.23960214E-07 -0.75766284E-08  0.15776459E-07
 -0.11289517E-07  0.95617382E-08  0.13553355E-07 -0.20675430E-07  0.13821387E-08
  0.30251190E-09 -0.28384451E-07  0.80011838E-07  0.88097538E-10 -0.79297521E-08
  0.82495319E-08  0.55418916E-08 -0.58291120E-08  0.23724825E-07  0.12402119E-07
 -0.24031995E-07  0.44495139E-07 -0.23110594E-08 -0.20941359E-07  0.30517990E-07
  0.11131994E-07  0.35331965E-08 -0.16417286E-07  0.35044385E-08  0.10601653E-07
 -0.19207399E-07  0.23254981E-07  0.83260039E-08  0.10251138E-07 -0.30897567E-07
 -0.38827529E-09  0.29130844E-08 -0.27715011E-07 -0.11141602E-07  0.83452944E-07
  0.15497876E-07 -0.63705003E-08  0.35626781E-08 -0.35390737E-07  0.12723981E-07
  0.28448505E-07 -0.39941841E-07 -0.93405258E-08  0.36856491E-07  0.20732166E-07
 -0.26613876E-07  0.61592341E-08 -0.21677139E-07 -0.12440598E-07  0.12205439E-06
  0.12101306E-08 -0.37536500E-07  0.16037771E-07 -0.14047351E-07  0.34829300E-07
  0.34236511E-07  0.20791890E-07 -0.32839254E-07  0.76197780E-08  0.10005214E-07
 -0.11131332E-07  0.58229919E-07 -0.11232032E-07 -0.81417948E-08 -0.56090854E-08

  0.95235424E-09  0.43668025E-10  0.11224995E-09 -0.28533413E-09  0.34729220E-09
 -0.12834033E-09 -0.41203947E-09  0.38128507E-09 -0.17073041E-09  0.91799281E-09
  0.92199326E-10 -0.51875324E-09  0.94283915E-10 -0.32417221E-09  0.23263340E-09
 -0.47301981E-09 -0.54195057E-10  0.37718392E-09 -0.24115594E-09 -0.55242857E-09
  0.64193659E-09  0.77428996E-09  0.63512148E-10 -0.23567791E-09  0.71585680E-10
  0.13052510E-09  0.10576108E-09  0.27393183E-09 -0.34030482E-09 -0.22140738E-09
 -0.58875814E-10  0.34710510E-09 -0.22783933E-09  0.56195318E-09 -0.46711116E-09
  0.17080271E-09  0.87051505E-09  0.60501243E-11  0.11317664E-09 -0.81081391E-09
 -0.98300528E-09  0.15834632E-09  0.22759554E-07 -0.18782028E-08 -0.19710189E-08
  0.66811447E-09 -0.84892445E-09 -0.89311303E-10 -0.44144422E-09 -0.40234710E-09
  0.21684913E-09 -0.87466142E-09  0.41050284E-09 -0.11787579E-09  0.73994325E-09
  0.14323319E-08 -0.13210188E-09 -0.61556125E-09  0.97707311E-10 -0.11113851E-09
  0.76637827E-09  0.95277904E-10 -0.40439968E-09 -0.60792484E-09 -0.13967541E-08
 -0.28533320E-09 -0.59674510E-10 -0.41837728E-09 -0.90733512E-10 -0.13894026E-08
  0.12152308E-09  0.93119457E-10 -0.15649995E-08  0.60708954E-10 -0.21692065E-09
  0.10728786E-09  0.29533818E-09 -0.19440930E-09  0.88896566E-09 -0.32255268E-09
 -0.33093211E-10  0.77469060E-10 -0.55675000E-09  0.13304447E-09  0.40429067E-10
  0.45840713E-09 -0.24419849E-09  0.49553566E-09 -0.17477103E-09 -0.14520303E-09
 -0.52857633E-10  0.10195592E-10  0.30028424E-09 -0.24568984E-09 -0.34530210E-10
  0.10133009E-09  0.20708504E-10 -0.16186189E-09 -0.23532934E-09  0.27471959E-09
  0.72770744E-09 -0.71829839E-09 -0.85364066E-09 -0.73628120E-09  0.11043084E-09
  0.18171356E-08 -0.10255536E-09 -0.10642220E-09  0.78980418E-09  0.44209195E-09
 -0.17067802E-10 -0.37183992E-09 -0.86265989E-10  0.35074418E-09  0.38915723E-09
  0.61433990E-09 -0.11477398E-09  0.51358938E-09 -0.36278089E-09  0.68386548E-09
 -0.75408792E-09 -0.46630826E-09  0.41938554E-09  0.15411252E-10  0.97707267E-10
  0.35094163E-09  0.34556382E-09 -0.52580287E-09 -0.49024622E-09 -0.84462310E-09
 -0.14852190E-09  0.19532788E-09 -0.60863664E-09 -0.18715909E-09  0.36771433E-09
  0.54868227E-08  0.64558804E-09  0.34852507E-08  0.40265476E-07 -0.70184377E-08
  0.32743152E-08  0.12192994E-07 -0.43179443E-09  0.44730849E-08 -0.10116970E-07
  0.13410338E-07 -0.34830164E-08  0.93804860E-08 -0.27372473E-07  0.69040769E-08
 -0.54866100E-08  0.55697779E-08 -0.46102542E-10 -0.19203835E-08 -0.13926044E-07
  0.49156645E-09 -0.55787203E-08 -0.55460575E-08 -0.93083908E-08  0.22285958E-07
 -0.40273570E-08 -0.29982557E-07  0.10467988E-07 -0.23494627E-08  0.47223016E-08
 -0.48474560E-07 -0.10738965E-07  0.12741051E-07 -0.16227575E-07 -0.10002440E-07
 -0.30606008E-08  0.14197851E-07  0.12083234E-07 -0.15771301E-07 -0.23811532E-07
 -0.24651519E-07  0.13180565E-07  0.41391150E-07 -0.23567660E-07 -0.24857510E-07
  0.54207945E-08 -0.52752977E-08 -0.55617989E-08 -0.12670850E-07  0.54862110E-08
  0.26460216E-08  0.87452567E-08  0.19195126E-07 -0.17759330E-07  0.37674593E-08
  0.60161209E-08  0.79248860E-08  0.25273468E-07 -0.17969974E-07 -0.83054158E-08
  0.32685637E-07  0.71730946E-08 -0.28423588E-07 -0.49106562E-08 -0.12735950E-07
  0.27708921E-08 -0.10476770E-07  0.13918931E-07  0.52311626E-08 -0.39750161E-07
 -0.82160675E-08 -0.54218666E-08 -0.72303679E-07  0.55357974E-08 -0.25625997E-07
 -0.75768895E-08 -0.77045098E-08 -0.10158115E-07 -0.43334223E-07 -0.15028631E-07
 -0.39847878E-07 -0.31881881E-07 -0.16355312E-08 -0.19869832E-08  0.20128368E-07
  0.88524565E-09 -0.10329160E-07  0.14032878E-07 -0.13066489E-07  0.25164160E-07

  0.31662316E-10  0.17564396E-08 -0.17123318E-09 -0.28557193E-09  0.65170201E-10
 -0.50969301E-10 -0.60899226E-10 -0.18681130E-09 -0.12504227E-09  0.27631506E-09
  0.27326158E-08 -0.13125416E-09 -0.64745845E-09  0.42193378E-09 -0.28736369E-09
 -0.11017373E-09 -0.43436201E-09 -0.27776525E-09  0.10483260E-08  0.21490438E-08
 -0.83306413E-09  0.22436608E-09 -0.32818660E-10  0.16715394E-09 -0.62773827E-10
 -0.54787578E-09 -0.16225986E-10 -0.31796765E-09  0.28608740E-08  0.96423265E-09
 -0.20580431E-09 -0.37605399E-09  0.40775272E-10  0.29377042E-09 -0.14689901E-09
 -0.37859819E-09 -0.80846435E-09  0.21629085E-08 -0.19540013E-09 -0.27000252E-08
 -0.31137082E-09  0.10144520E-09 -0.18782028E-08  0.18416504E-07 -0.56942918E-09
 -0.71914677E-09  0.21976808E-08 -0.73539839E-09 -0.34898853E-09  0.27701233E-09
  0.39972723E-10  0.16748572E-09 -0.78958602E-09 -0.13037169E-09 -0.10867718E-08
  0.31113424E-08 -0.14276583E-08  0.41960480E-09  0.35401808E-10 -0.12211084E-09
 -0.15577307E-09 -0.43837079E-09  0.20687611E-09 -0.11938947E-08  0.24545047E-08
  0.59485803E-10  0.76356152E-10  0.92866485E-10 -0.44177359E-09  0.27550054E-09
 -0.15443830E-08 -0.95965126E-10  0.14889604E-08  0.13996681E-08  0.47215936E-10
 -0.10889004E-09  0.11818890E-09 -0.29421683E-09 -0.51382571E-10 -0.22853181E-09
 -0.22133172E-09 -0.12148738E-08  0.18580921E-08  0.46526659E-09 -0.22592729E-09
 -0.11380899E-09 -0.18800539E-09 -0.50980838E-09 -0.71695752E-09 -0.46006931E-09
 -0.17771750E-09  0.22835272E-08 -0.21791703E-09  0.48967148E-09 -0.20284088E-09
 -0.32616874E-09 -0.31413569E-09 -0.17250950E-09  0.35524742E-10  0.27852980E-09
  0.20451450E-08  0.12645010E-09 -0.10476544E-08  0.22543783E-09  0.18895164E-09
  0.14444290E-09  0.36294127E-10  0.16031788E-09 -0.59071106E-09  0.24983896E-08
  0.45464044E-09 -0.20469442E-09  0.16053395E-09 -0.29828238E-09  0.20094912E-09
 -0.95802750E-09 -0.40108302E-09  0.90326178E-09  0.19539927E-08 -0.38665425E-09
  0.77021600E-09 -0.30868374E-09  0.58165245E-09 -0.46500085E-09 -0.30605342E-09
  0.28691085E-09  0.65454263E-09  0.16490554E-08  0.11641821E-08 -0.39733984E-09
  0.51495327E-09 -0.21503606E-09 -0.66477390E-09 -0.46522058E-09 -0.46251302E-10
  0.24473086E-07 -0.19801886E-08  0.17405915E-07 -0.23298253E-07 -0.93650355E-08
 -0.22158244E-08 -0.17715966E-07 -0.30725739E-07  0.12372545E-07  0.78078450E-09
  0.55810424E-09 -0.14769931E-07  0.14825750E-07  0.68704109E-08 -0.80417554E-08
  0.98334765E-08 -0.22889139E-07  0.51213249E-08 -0.11024732E-07  0.35139533E-07
  0.21392048E-07  0.31701552E-07 -0.88233755E-08 -0.17672733E-07  0.22099098E-07
 -0.45565347E-07 -0.48976919E-08  0.60490147E-08  0.92065274E-08  0.56693297E-08
  0.15201645E-07 -0.73347823E-09 -0.10472137E-07  0.61628238E-08  0.34447554E-07
  0.25685855E-08  0.55957065E-08 -0.18569670E-07 -0.10273123E-07  0.32503522E-07
 -0.34029674E-08 -0.16926802E-07  0.38613588E-07 -0.13219925E-08 -0.68550689E-08
  0.24921983E-07 -0.24734215E-07  0.13949589E-07  0.21483148E-07 -0.26366391E-07
  0.13550107E-08 -0.19937035E-07  0.20731814E-07  0.13967156E-07  0.29761461E-08
  0.95443684E-08 -0.17286852E-07  0.17015117E-07 -0.11265902E-07 -0.12418762E-07
 -0.47308545E-08 -0.14458955E-07  0.17311471E-07  0.17247237E-08  0.20322308E-08
 -0.22442872E-07 -0.23847928E-07  0.21535668E-07 -0.19673609E-07 -0.11704137E-07
  0.19723810E-07 -0.53791149E-09  0.39850012E-07 -0.39706317E-07 -0.72456009E-09
  0.54456831E-07 -0.39843306E-07  0.23690289E-07 -0.55260848E-07 -0.49399296E-07
 -0.12271504E-07  0.28305714E-07 -0.46036532E-08 -0.14685296E-08 -0.46615302E-08
  0.26616787E-08  0.12659407E-08  0.64277628E-08  0.28622763E-07  0.36369012E-08

 -0.86822891E-11 -0.72693079E-09 -0.18265705E-09 -0.12595349E-10  0.48698312E-09
  0.22582293E-09 -0.15977650E-09 -0.44189830E-10  0.24880203E-09 -0.65431316E-09
 -0.63227567E-09  0.12172534E-08 -0.27556402E-10 -0.12904937E-09 -0.35520673E-09
  0.68357980E-09  0.17486528E-09 -0.29020225E-10  0.10715744E-08  0.33461225E-09
  0.13653405E-09  0.41744920E-09 -0.78727994E-09 -0.19076279E-09  0.13356259E-09
  0.13353046E-09 -0.13770546E-09 -0.21001550E-09 -0.87032558E-11  0.90749236E-09
 -0.33442406E-09 -0.64753388E-09  0.22999248E-09  0.29236190E-09  0.53969361E-10
  0.31304777E-09  0.24501443E-09  0.24484518E-09  0.44755392E-09  0.39269165E-09
 -0.27924767E-08 -0.22265069E-08 -0.19710189E-08 -0.56942918E-09  0.21195323E-07
 -0.35105788E-09  0.16555660E-09 -0.29122657E-09  0.62287670E-10  0.31484440E-09
 -0.28121479E-10 -0.20732819E-09 -0.71949576E-10 -0.77898938E-09  0.15139279E-09
  0.14917049E-08  0.11245890E-08 -0.95036381E-10  0.23515777E-09  0.49973364E-13
 -0.44313452E-09 -0.41908082E-09  0.68836611E-09 -0.27540219E-09 -0.20835084E-09
  0.34404448E-09 -0.11859148E-09  0.16456601E-09  0.30308233E-09  0.15201424E-09
 -0.13177950E-09 -0.84242313E-09 -0.24000227E-09 -0.22347309E-08 -0.94571250E-09
 -0.87242492E-10 -0.30810369E-09 -0.71779351E-09 -0.17615014E-09 -0.82137292E-10
  0.25821474E-09  0.45471562E-09  0.33233093E-09  0.91950280E-09 -0.38383054E-09
  0.18948308E-09  0.20007028E-09 -0.22096153E-09 -0.15844279E-09  0.59768574E-09
  0.37126286E-09 -0.46632470E-09  0.43901744E-09  0.13719646E-09 -0.68999844E-09
 -0.29830693E-09 -0.10669084E-09  0.11281136E-09  0.20529867E-11 -0.81442777E-09
  0.51773016E-10 -0.20695129E-09  0.99248962E-10 -0.74655868E-09  0.14524532E-09
 -0.95079542E-10 -0.46383548E-09 -0.16449144E-09 -0.24701815E-09  0.17592793E-08
 -0.16716988E-10 -0.15914928E-09  0.94593669E-09  0.26768513E-09 -0.22623103E-09
  0.41082513E-09  0.54392159E-09  0.39696742E-09 -0.13341086E-09 -0.76896962E-09
  0.60523238E-10  0.94288650E-10 -0.35984967E-09  0.25461484E-09  0.69531831E-11
 -0.45144954E-09 -0.83724887E-09 -0.26559347E-08 -0.48236669E-09 -0.19760500E-09
 -0.61735860E-10  0.32744230E-09  0.42731323E-09  0.43687345E-10 -0.14875390E-09
 -0.44498751E-08 -0.61194819E-07  0.15684778E-07  0.13088675E-07  0.64794531E-09
 -0.43311183E-07 -0.53961129E-09  0.46762588E-08  0.33849001E-07  0.26989393E-08
 -0.55418092E-08 -0.54486800E-08  0.61843997E-09  0.11123240E-07  0.11044225E-07
 -0.16056301E-07  0.42196875E-08  0.90065210E-08  0.22050087E-07 -0.53393925E-08
  0.66125553E-08  0.24878443E-07 -0.30972658E-07 -0.21280139E-07 -0.39890554E-07
 -0.12873970E-07 -0.13039344E-07 -0.15187579E-08  0.28957305E-07  0.30169986E-08
 -0.47509552E-08 -0.63995851E-08  0.49763444E-08  0.12048221E-07  0.11030079E-08
 -0.18892687E-08 -0.90525651E-08 -0.21633815E-07 -0.11646642E-07 -0.19936908E-07
 -0.62267306E-08 -0.13790976E-07 -0.35568181E-07  0.49753026E-08  0.40359976E-07
  0.97222817E-08  0.82494403E-08  0.45949308E-07 -0.63973693E-08  0.45470821E-07
  0.76277215E-08 -0.21789765E-07  0.10611363E-07 -0.46105737E-08  0.19507137E-07
  0.17816428E-07  0.15550265E-07 -0.71116539E-08  0.25977688E-07  0.21349162E-07
 -0.43641398E-07  0.12776115E-07  0.30730103E-07 -0.12407420E-10  0.31596362E-07
 -0.78824829E-08  0.72658093E-08 -0.22681852E-07 -0.78434860E-08  0.72328916E-08
 -0.17415033E-08 -0.29430893E-08 -0.13039488E-07 -0.33580352E-07 -0.26116031E-07
 -0.11869638E-07 -0.18298512E-07  0.35456504E-07 -0.30703768E-07 -0.15243139E-07
  0.17533694E-07 -0.81195718E-08  0.43357213E-07 -0.28897984E-07 -0.98300285E-08
 -0.33547164E-07 -0.49393265E-08  0.20824737E-07  0.41897664E-08  0.69977797E-08

  0.11548282E-08 -0.35715263E-08  0.36087925E-10  0.20824020E-09  0.82043093E-09
 -0.29605941E-09 -0.21661878E-09 -0.64306075E-09  0.47605577E-10 -0.21408642E-08
 -0.15920800E-08 -0.17873306E-08 -0.23001252E-08 -0.34717750E-09  0.28668085E-09
 -0.98445423E-09 -0.75786042E-09 -0.56164440E-10 -0.46388763E-08 -0.34083040E-08
 -0.16233499E-09  0.34760684E-09  0.10948002E-09 -0.18476848E-10 -0.51439237E-09
  0.30231882E-09 -0.25996366E-09 -0.28555361E-08 -0.29096584E-08 -0.15397161E-08
 -0.15506459E-08  0.34188377E-09  0.69643017E-10 -0.14018463E-09  0.89046180E-10
  0.16459773E-09  0.39980180E-08  0.15061240E-09  0.94016671E-09 -0.31233455E-08
  0.51701836E-11  0.23668967E-09  0.66811447E-09 -0.71914677E-09 -0.35105788E-09
  0.10903461E-06 -0.13294343E-07  0.46671662E-08 -0.15288789E-08  0.65064196E-09
  0.83753538E-09  0.26987365E-08 -0.24078864E-09 -0.66277434E-09  0.25810281E-08
 -0.23699574E-08 -0.25264430E-09 -0.46787550E-09  0.57508750E-09 -0.60890269E-09
 -0.14810735E-08 -0.11732896E-08 -0.27697368E-09 -0.11148447E-09 -0.13585636E-08
  0.27355217E-08 -0.13490622E-08 -0.36450579E-09  0.40605512E-09  0.28030518E-09
  0.75082487E-10  0.11693434E-09 -0.12648621E-08 -0.82488134E-09  0.14269443E-08
 -0.39454593E-09  0.54555029E-10 -0.25893837E-09 -0.60435186E-09  0.63704292E-09
  0.42628577E-09  0.58429586E-08 -0.22657635E-08  0.82217297E-09  0.33545114E-08
 -0.61003649E-09 -0.92855056E-10  0.12694844E-08  0.94685992E-09  0.64857138E-09
 -0.11851722E-08 -0.14416247E-08 -0.14862951E-09 -0.62937296E-09  0.11840999E-10
  0.76980868E-09  0.34772251E-09  0.40191255E-09 -0.40696109E-09  0.12934665E-08
 -0.19267235E-08  0.11290712E-08  0.14761444E-08 -0.30278983E-09 -0.62379508E-09
 -0.68591408E-10 -0.46728372E-09 -0.30105095E-09  0.48940811E-08  0.15676760E-09
  0.15263814E-08  0.16245086E-08 -0.67832407E-09  0.12525639E-09 -0.13032356E-08
  0.13097843E-08 -0.12337689E-10  0.13654349E-08 -0.31646875E-08 -0.80129334E-10
  0.71465416E-09  0.49983649E-09 -0.58664172E-09 -0.12402954E-08 -0.69139390E-10
  0.24881004E-09  0.14966394E-08 -0.33216640E-08 -0.30628379E-09  0.11740099E-09
 -0.42349426E-09 -0.62593226E-09  0.15197075E-09  0.22791220E-10 -0.64532788E-10
  0.26436670E-06  0.90405603E-07 -0.33271617E-07  0.16035764E-06  0.35858372E-08
 -0.55969483E-07  0.63844721E-07  0.60706512E-07  0.36365208E-07 -0.98216288E-07
  0.99983427E-07  0.36312775E-07  0.69439019E-07  0.76711162E-09 -0.58900123E-07
  0.39513408E-07  0.31730409E-08 -0.65832312E-07 -0.29079566E-07  0.99565535E-07
  0.63342143E-08  0.26314098E-07  0.46049937E-07  0.59843916E-07 -0.82573224E-07
  0.79716316E-07 -0.14180687E-08  0.37504537E-07 -0.28892271E-07 -0.11134863E-07
 -0.17338001E-07  0.72697771E-07  0.12703363E-07 -0.33578493E-07  0.62538985E-07
  0.97647173E-08  0.11869598E-06 -0.40799107E-07  0.70183573E-07  0.13531770E-06
  0.94112888E-09 -0.34908999E-07  0.45867378E-07 -0.53627368E-08 -0.83958930E-08
  0.76443181E-08  0.13644965E-07 -0.86925681E-07  0.98609489E-07 -0.44445289E-07
  0.84424772E-08  0.11007535E-06  0.23626092E-07  0.31452462E-07  0.59285494E-07
 -0.52331081E-07 -0.97800138E-08  0.10708126E-06 -0.15172855E-07 -0.46633456E-07
  0.83694214E-07  0.38691259E-07  0.34931865E-07  0.12798552E-06 -0.83894047E-07
 -0.14060095E-06  0.43576798E-07 -0.31280487E-07 -0.55765052E-07 -0.87492368E-07
 -0.13467911E-07  0.18406824E-06 -0.10544976E-07 -0.71092126E-07  0.35069491E-07
 -0.88276380E-07  0.72560511E-07 -0.53948178E-07 -0.99552483E-08  0.35326937E-07
  0.72712499E-07 -0.99674290E-07  0.14551498E-07 -0.73030957E-07  0.15850623E-06
  0.88857145E-07 -0.24282153E-07 -0.41700867E-08  0.21321485E-06 -0.28315392E-07

  0.94749299E-10  0.21800526E-05 -0.15681809E-08  0.43851957E-08 -0.48078659E-09
  0.44108560E-08 -0.49180602E-08 -0.12414444E-08 -0.35068149E-08  0.46001867E-08
  0.21674932E-05 -0.61563783E-08  0.27018496E-08 -0.94461285E-08  0.24226661E-08
 -0.28893308E-08  0.25883904E-08  0.12521295E-08 -0.33788601E-09  0.21810483E-05
  0.78545577E-08  0.16240239E-08  0.76995408E-08  0.21466621E-10  0.54544753E-08
  0.10986081E-08  0.73477828E-09  0.82556053E-08  0.21629964E-05  0.36354887E-08
  0.18888895E-08  0.65368363E-08 -0.11687982E-10  0.29851328E-08  0.11286266E-08
  0.11490958E-08 -0.27098742E-08  0.21570308E-05  0.72536792E-08  0.23167106E-08
 -0.28134420E-08 -0.23691170E-09 -0.84892445E-09  0.21976808E-08  0.16555660E-09
 -0.13294343E-07  0.22530627E-05 -0.67861035E-08  0.10380713E-08  0.34187126E-08
  0.66339306E-09 -0.51910458E-09 -0.36926171E-08  0.37084419E-08  0.12503716E-07
  0.21299645E-05 -0.12391390E-08  0.10703613E-09  0.60182584E-09  0.16178868E-08
 -0.25819983E-08 -0.12359827E-08  0.21738090E-08  0.41304373E-08  0.21636478E-05
  0.94579858E-08 -0.48084182E-08  0.82545893E-08  0.81039899E-09 -0.15919913E-08
  0.34126462E-09  0.16394449E-09 -0.94890203E-08  0.21368836E-05 -0.10125870E-07
  0.59901372E-08 -0.79677642E-08  0.20962721E-08 -0.15258361E-08  0.32297703E-09
 -0.36632408E-09  0.10833751E-07  0.21480079E-05 -0.43869549E-08  0.59421799E-08
 -0.13948473E-08 -0.13203221E-08  0.42191663E-08  0.70639421E-09 -0.10947151E-08
 -0.24004096E-08  0.21855570E-05  0.12499240E-07 -0.35613453E-09  0.12188307E-08
  0.25454422E-08 -0.42332681E-08 -0.18434945E-09 -0.44533232E-09  0.14308954E-07
  0.21663093E-05 -0.99030400E-09 -0.34119083E-08  0.13432649E-07  0.16278808E-08
 -0.86624823E-09 -0.21794467E-08  0.43721862E-08  0.19008518E-08  0.21598132E-05
  0.41392039E-08  0.44103497E-08 -0.64201371E-08  0.76989357E-10 -0.45254230E-08
  0.11510344E-08 -0.24342119E-08  0.81603037E-09  0.21678613E-05 -0.33841861E-08
  0.42217496E-08  0.38421712E-08  0.16123921E-08 -0.98688568E-09 -0.18209958E-08
  0.41818011E-08  0.42298026E-08  0.21759299E-05 -0.76763810E-08  0.37197630E-08
 -0.56363773E-08  0.26863071E-08  0.24593649E-09 -0.14480424E-08 -0.56862105E-08
 -0.50418079E-06 -0.10019104E-04  0.15562729E-05 -0.13897163E-06  0.21357264E-05
 -0.12810440E-06  0.19322981E-06 -0.69310370E-07 -0.36831176E-07  0.16640787E-05
 -0.20153669E-05 -0.56638729E-06  0.12642030E-06 -0.41174983E-07  0.10011959E-06
  0.61026307E-06 -0.44928093E-06 -0.60910179E-07  0.18341093E-05 -0.35340420E-05
 -0.92338359E-07  0.53011317E-06 -0.65650977E-06 -0.19850140E-07 -0.57596255E-07
  0.59819251E-06 -0.11154480E-05  0.42371354E-06 -0.83033031E-06  0.29383043E-07
 -0.31625179E-09 -0.38222377E-06  0.13152235E-06 -0.18855579E-06  0.37495241E-06
 -0.40960308E-06  0.13623012E-05 -0.34385313E-05 -0.15404809E-06 -0.48141032E-06
  0.43188886E-06  0.46995252E-06 -0.58662403E-06 -0.41515319E-06 -0.44647864E-06
  0.16538698E-06 -0.25477148E-05  0.53149196E-06  0.20510236E-06 -0.92745837E-06
  0.26419494E-06  0.85148584E-06 -0.12343633E-06  0.34705279E-06  0.17989590E-05
 -0.37452600E-05  0.48236880E-06  0.77903925E-07 -0.68098991E-06  0.59996530E-06
 -0.22160752E-06  0.11547492E-06  0.55573519E-06  0.13099464E-05 -0.21744171E-05
 -0.47540410E-06 -0.27889921E-06 -0.71871514E-06 -0.33348886E-07  0.40582136E-07
  0.25231653E-06 -0.51474545E-06  0.79076760E-06 -0.27653986E-05 -0.66764369E-06
 -0.24075802E-06 -0.54174884E-08  0.67922798E-06  0.51938041E-06 -0.43720726E-06
  0.22706385E-07  0.10081833E-06 -0.14654929E-05  0.42880347E-06 -0.13185603E-06
  0.14631429E-06  0.35923079E-06 -0.61248941E-06  0.81758104E-06 -0.78290850E-06

  0.42253192E-09  0.86647754E-09 -0.16874252E-08 -0.13791787E-10  0.82027663E-09
 -0.12262400E-08 -0.31917383E-09  0.35708124E-09 -0.55494008E-09 -0.29371179E-08
 -0.44041035E-09 -0.88968223E-09 -0.75932814E-09 -0.13284096E-08  0.77816268E-09
  0.46004116E-10 -0.62572118E-09 -0.36194581E-09  0.31741874E-09  0.10769220E-08
 -0.62731392E-09 -0.29800994E-09  0.30586772E-09  0.15553868E-08 -0.29794731E-09
  0.16173766E-09 -0.91916401E-10 -0.41603027E-09 -0.93220167E-09 -0.34698960E-08
  0.80857237E-10 -0.56495303E-09  0.15074478E-09  0.14826689E-09 -0.30523014E-09
 -0.33280889E-09  0.10408804E-08  0.29555631E-08  0.17436451E-08 -0.36051456E-09
  0.19302107E-09 -0.69236174E-09 -0.89311303E-10 -0.73539839E-09 -0.29122657E-09
  0.46671662E-08 -0.67861035E-08  0.87278185E-07  0.55574224E-09 -0.43952141E-09
 -0.10887944E-08 -0.38900575E-09  0.60256856E-09  0.71601487E-09 -0.64434991E-10
 -0.73678258E-10  0.18923621E-08 -0.59200285E-09  0.11339392E-09 -0.65267524E-09
 -0.48125326E-10 -0.75800011E-09  0.77024820E-09  0.35587942E-08  0.89999485E-10
 -0.75451657E-09  0.64692933E-10  0.42676358E-09 -0.62242134E-09  0.14414771E-09
  0.30621054E-10 -0.52603228E-09  0.10176484E-08 -0.11165934E-08 -0.32325942E-09
 -0.14698496E-09  0.76467489E-09 -0.16758093E-09  0.54981615E-09 -0.36423991E-09
  0.25772376E-09  0.23478644E-09  0.57698113E-09  0.31417031E-09  0.99425281E-09
  0.59917872E-09 -0.18473920E-08  0.57448094E-09  0.58124308E-09  0.11650683E-09
  0.85858994E-09 -0.91543103E-09 -0.13597710E-08  0.19983564E-09  0.59022113E-09
 -0.11783595E-08 -0.51682053E-09  0.94918643E-09  0.10754532E-08  0.25863888E-10
 -0.20908168E-08  0.34121784E-08 -0.27485223E-09 -0.19434056E-09  0.12838009E-08
 -0.53191392E-09 -0.34983867E-09  0.77129250E-09  0.12572702E-08  0.49382522E-08
 -0.13209724E-08  0.11586751E-08 -0.45767170E-09  0.15198749E-10  0.21091291E-09
  0.45963971E-09 -0.14984720E-08 -0.11442829E-08  0.15516219E-08 -0.16793484E-08
 -0.40468214E-09 -0.70163285E-09  0.11840886E-08  0.41261941E-09 -0.98652346E-10
 -0.53214846E-09 -0.32432223E-09  0.10229787E-08  0.11761895E-08 -0.27552462E-09
 -0.11782596E-09  0.46674600E-09 -0.15918774E-09 -0.73823050E-09  0.27417601E-09
 -0.76648294E-07 -0.67391860E-07  0.18937514E-06  0.17245150E-07 -0.65672566E-07
  0.13417399E-06  0.20102552E-07  0.14062561E-08  0.10250923E-06 -0.24266991E-07
  0.88276376E-07  0.12586094E-06  0.18882730E-07 -0.22161352E-07  0.38615538E-07
 -0.49349591E-07 -0.39485787E-07 -0.27166141E-07 -0.23260705E-10  0.14263323E-07
  0.17572223E-07  0.99366836E-07 -0.58774165E-07 -0.30445381E-07 -0.15309517E-07
  0.71244066E-07 -0.18447027E-07 -0.15178868E-07  0.11991744E-07 -0.28031099E-07
 -0.20302486E-07 -0.60590417E-08  0.92411770E-07  0.40642025E-08  0.44041757E-07
 -0.36120418E-07  0.66219768E-07 -0.24833267E-07 -0.13375701E-08 -0.12547900E-07
 -0.17950279E-07 -0.83679115E-08  0.29319246E-08  0.13575727E-07  0.16163325E-08
 -0.54702132E-07 -0.96979400E-07 -0.34812403E-07  0.28119027E-07  0.40116488E-07
  0.65675630E-07  0.15217067E-07  0.75894493E-08  0.40823405E-07  0.15059677E-07
  0.12695887E-07  0.10043693E-06 -0.18363010E-08 -0.61082998E-07  0.10385244E-06
  0.42540381E-07 -0.50343880E-07  0.11481531E-06 -0.17196358E-06 -0.10678692E-07
  0.13186246E-06 -0.63789200E-07  0.79465624E-07 -0.35472511E-07  0.15987142E-06
 -0.12774361E-06  0.44490446E-07  0.12043504E-07  0.33544688E-07  0.17637388E-07
 -0.22594962E-07  0.14991965E-07  0.12092180E-06  0.51913003E-07 -0.68271383E-07
  0.33786955E-07 -0.20948275E-07  0.38387641E-07 -0.26997896E-07  0.20014609E-06
  0.55407079E-07 -0.10274467E-06  0.10116889E-10 -0.14527721E-07 -0.10395356E-06

  0.20837773E-08  0.99249991E-09 -0.41299368E-10 -0.10098568E-08  0.78035081E-09
  0.69589520E-09  0.36525727E-09  0.24397691E-09 -0.20792584E-09 -0.68894282E-09
  0.32568113E-08  0.88831988E-09 -0.52294017E-09  0.10196540E-08  0.94927635E-09
 -0.27903636E-09  0.18442506E-09 -0.13129598E-10 -0.18280186E-08  0.26818142E-08
  0.69051190E-09 -0.16328456E-08  0.15576228E-08  0.90465251E-09 -0.38678609E-09
 -0.25081388E-09 -0.51001623E-10 -0.92558564E-09  0.14008241E-08  0.38235263E-09
 -0.24901942E-08  0.11112621E-08  0.13299753E-08 -0.71276105E-09  0.18938304E-09
 -0.14780734E-09 -0.18016029E-08  0.13802686E-08  0.71782246E-09 -0.12551747E-08
  0.77133206E-09  0.15127885E-08 -0.44144422E-09 -0.34898853E-09  0.62287670E-10
 -0.15288789E-08  0.10380713E-08  0.55574224E-09  0.44140959E-07 -0.95492814E-08
 -0.81225107E-08 -0.43984087E-08 -0.18028358E-08  0.61946133E-09  0.64165399E-09
  0.12246825E-08  0.13572617E-08 -0.37674762E-09  0.58076781E-09  0.47270677E-09
 -0.16700394E-09 -0.99061361E-10  0.85462180E-10  0.10411168E-08  0.22901554E-08
 -0.88277270E-09 -0.11260062E-08  0.37513888E-09  0.93500501E-09  0.38509724E-10
  0.99761570E-09 -0.29293194E-10 -0.18829015E-08  0.22702622E-08  0.75191860E-09
  0.23033801E-09  0.94666360E-09  0.77097964E-09 -0.86022752E-09 -0.23887458E-09
  0.15882791E-10 -0.18787749E-09  0.44247836E-09  0.10969969E-09  0.17718094E-09
  0.78924888E-09  0.42610043E-09 -0.57733789E-09 -0.72967111E-10  0.16915747E-09
 -0.21813072E-08  0.19855064E-08  0.96522347E-10  0.19662514E-09  0.37679936E-09
  0.75966252E-09  0.32993736E-10 -0.68180858E-09  0.15188963E-10 -0.25190251E-08
 -0.74608401E-10 -0.44463586E-09 -0.12426403E-08  0.14423967E-08  0.64997713E-09
 -0.65746839E-09  0.74993820E-10  0.27643166E-09  0.27131410E-08 -0.88877628E-09
 -0.11644615E-08  0.74775309E-09  0.74200428E-09 -0.49433720E-10 -0.12280684E-09
  0.61445867E-09  0.11709366E-09 -0.21588646E-08  0.16310120E-08 -0.39320985E-09
 -0.10398145E-08  0.63786527E-09  0.11016946E-08  0.68117287E-09  0.12575519E-09
  0.77154133E-10  0.21906491E-08  0.20344139E-08 -0.45447715E-09 -0.11431696E-08
  0.78336102E-09  0.85688352E-09 -0.17247009E-09 -0.13858601E-09 -0.58156886E-09
 -0.74560213E-07 -0.32392431E-07  0.16377236E-07 -0.56780849E-07 -0.46069084E-07
  0.30200793E-07 -0.80758206E-07  0.27278785E-07  0.16416074E-08 -0.29955047E-07
 -0.13509821E-08 -0.59831237E-08  0.68783497E-08  0.85541243E-08  0.11425465E-07
 -0.26746818E-07  0.21228653E-07 -0.28444686E-07 -0.39106096E-07 -0.12568764E-07
  0.63421345E-09 -0.12158878E-07  0.21214360E-07  0.15846158E-08 -0.38879792E-07
 -0.10629924E-08  0.83181240E-08  0.10298817E-07 -0.28133235E-07  0.83174017E-08
 -0.39274853E-07 -0.25424691E-07  0.28472385E-07 -0.25502991E-07 -0.43457290E-07
  0.28671860E-08  0.31609507E-07  0.25786977E-07 -0.11336023E-08 -0.67073531E-07
 -0.77068367E-08  0.21654782E-09  0.30484068E-07  0.75792123E-08  0.27053666E-07
 -0.33073924E-07 -0.52529224E-09 -0.75170858E-08 -0.33016310E-07  0.12646405E-07
  0.10337010E-07  0.10878649E-07  0.20513266E-07 -0.11932645E-08 -0.19197653E-07
  0.10384301E-07  0.30687673E-07  0.56895547E-07 -0.63178987E-08  0.54324495E-08
 -0.20561879E-07  0.20486396E-07 -0.12635426E-07 -0.35019230E-07  0.31476606E-07
  0.31756169E-07 -0.27585221E-07 -0.28710771E-07  0.78746700E-08  0.48961021E-07
 -0.37114127E-07 -0.78730611E-08  0.14776176E-07 -0.16504432E-07  0.17550526E-07
  0.63297330E-07 -0.56143163E-08 -0.37934857E-08  0.37486793E-07  0.20558786E-07
  0.84958867E-10  0.20006552E-07  0.21618366E-08 -0.69233627E-07  0.75556381E-07
 -0.11412669E-07  0.43481010E-07 -0.42793804E-08  0.86455960E-08 -0.10116646E-07

 -0.35137781E-09  0.11467546E-08  0.35211326E-09  0.76413199E-09 -0.11059914E-08
  0.85524722E-09  0.12752668E-09  0.19193210E-09 -0.53101703E-09  0.81387962E-09
  0.39988576E-08 -0.60166859E-10  0.75876472E-09 -0.12211920E-09  0.32040181E-09
 -0.39831716E-09  0.10479699E-09 -0.22650027E-09  0.96526559E-09  0.24958542E-08
 -0.16978848E-09  0.13844269E-08 -0.16466621E-08  0.48144635E-09  0.22712820E-09
 -0.13977258E-09 -0.30440458E-10 -0.41536346E-09  0.42178624E-08 -0.93810433E-09
  0.11436134E-08 -0.14033794E-08  0.84840029E-09 -0.17171358E-09  0.24424014E-10
  0.31435493E-10  0.86106023E-09  0.22883194E-08 -0.31666136E-09  0.93283760E-09
 -0.26419707E-08  0.10474284E-08 -0.40234710E-09  0.27701233E-09  0.31484440E-09
  0.65064196E-09  0.34187126E-08 -0.43952141E-09 -0.95492814E-08  0.39474644E-07
 -0.75824609E-08 -0.37186853E-08 -0.51642566E-09 -0.17545385E-08  0.11984464E-09
  0.19386406E-08 -0.34644944E-09  0.53535792E-09 -0.64929145E-09  0.65837983E-09
 -0.21230085E-09 -0.56727215E-11  0.56114850E-10 -0.48395120E-09  0.15131821E-08
 -0.33499015E-09  0.37093138E-09 -0.77604762E-09  0.59649711E-09  0.35504426E-09
 -0.23698789E-09 -0.64435553E-09  0.46596887E-09  0.13871513E-08  0.17846455E-09
  0.85669504E-09 -0.17625915E-08  0.37040520E-09 -0.12567232E-10  0.10138680E-09
  0.97141729E-10 -0.54590378E-09  0.34345436E-08  0.86188693E-09  0.84773171E-09
 -0.70945991E-09  0.67373785E-09  0.10541765E-09 -0.51134439E-10 -0.19187399E-09
  0.53060361E-09  0.43596408E-08  0.11587308E-08  0.23210929E-09 -0.11030028E-08
  0.99990709E-09  0.12580690E-09 -0.30428056E-09 -0.33317188E-10 -0.41008929E-09
  0.21436920E-08 -0.59629770E-09  0.12082628E-08 -0.21703122E-08  0.85751949E-09
  0.25664210E-10  0.14798740E-09 -0.89102140E-10 -0.10006901E-08  0.35079936E-08
  0.77335434E-09  0.76003239E-09  0.10580734E-09  0.56027255E-09 -0.24475277E-09
  0.10959466E-09 -0.74311468E-09  0.42433900E-09  0.49172712E-08  0.12700694E-08
  0.10544930E-08 -0.21897752E-08  0.48264390E-09 -0.42091907E-09  0.17520538E-09
  0.77805249E-10  0.52971924E-10  0.16803952E-08 -0.28317544E-09  0.83424579E-09
 -0.14464714E-08  0.66985095E-09 -0.19078372E-09 -0.48424304E-10  0.92238924E-09
  0.50152954E-07  0.83099328E-07 -0.38477437E-07 -0.43068034E-08  0.42552146E-07
  0.16797226E-07 -0.36861633E-07  0.74858377E-08  0.29244994E-07  0.75014155E-08
 -0.38411095E-07  0.54163788E-08  0.12867400E-07  0.18584625E-07  0.18962109E-08
  0.96587711E-08 -0.11818980E-07 -0.20816135E-07  0.53540415E-10 -0.35948910E-07
  0.24832132E-07 -0.76536915E-08  0.38105304E-08  0.13194285E-07  0.22058691E-07
 -0.27803619E-07  0.17520371E-07 -0.24104222E-07  0.20546958E-07 -0.12320277E-08
  0.47865673E-08  0.55214107E-07 -0.28738206E-08 -0.11002395E-08  0.14891543E-07
 -0.26952141E-07 -0.30674217E-08 -0.15901328E-08 -0.52281868E-08 -0.10510576E-07
  0.82446102E-07 -0.61076314E-08  0.24736933E-07  0.17498401E-09  0.18959185E-08
 -0.21543312E-07 -0.13640372E-07 -0.30467924E-07 -0.39552476E-08  0.78483074E-07
 -0.13584399E-07 -0.23869905E-07  0.10215980E-07 -0.16844024E-07  0.86683999E-08
 -0.25053149E-07 -0.20150528E-07 -0.12534659E-07  0.10249719E-06 -0.25950637E-07
 -0.82446197E-08 -0.17009275E-07 -0.79708225E-09  0.21266103E-07 -0.55966590E-07
 -0.45289300E-07 -0.24173442E-07  0.27486750E-07 -0.16441396E-07  0.26121488E-07
  0.70141122E-07  0.53857511E-07 -0.18186426E-07 -0.42149911E-07 -0.13044213E-08
 -0.60301702E-08 -0.51884858E-07  0.15094117E-07  0.49458079E-07  0.11047505E-08
  0.81008932E-08  0.30640395E-09  0.66665003E-07  0.44278729E-08  0.55233447E-08
  0.82148492E-08  0.40977396E-07 -0.21328893E-07  0.25897030E-07  0.15342224E-07

 -0.47023788E-09  0.17002311E-08 -0.33968964E-09  0.76210220E-09  0.70167324E-09
 -0.67833912E-09 -0.38895071E-10 -0.95190274E-10 -0.44694053E-09  0.11138599E-08
  0.69897914E-09 -0.27933673E-08  0.10831610E-08  0.45387846E-09 -0.10560493E-08
  0.10132509E-09 -0.53046109E-09 -0.51255944E-10  0.93375060E-10  0.96300209E-09
 -0.31487366E-09  0.10657165E-08  0.59733821E-09 -0.84795327E-09  0.11651250E-09
 -0.11945225E-09 -0.39590666E-09 -0.47266974E-10  0.12656254E-08  0.38156276E-09
  0.97231183E-09  0.89315475E-09 -0.41887362E-09  0.43701748E-10 -0.28852525E-09
  0.37804759E-09 -0.58115534E-09  0.12400408E-08  0.51356900E-09  0.10410305E-08
  0.10515380E-08 -0.20245893E-08  0.21684913E-09  0.39972723E-10 -0.28121479E-10
  0.83753538E-09  0.66339306E-09 -0.10887944E-08 -0.81225107E-08 -0.75824609E-08
  0.26060765E-07  0.85135829E-09  0.83793105E-09 -0.13498276E-08 -0.38519303E-09
  0.18945042E-08 -0.10419878E-08  0.58830988E-09  0.62236983E-09 -0.10561300E-08
 -0.16897557E-09 -0.27833881E-10 -0.13295018E-09 -0.56459197E-09  0.11133180E-08
  0.76937467E-09  0.97277798E-09  0.61109583E-09 -0.64654877E-09 -0.16129713E-09
 -0.37545779E-09 -0.15144784E-10  0.36316748E-09  0.15757581E-08 -0.79845574E-09
  0.64614954E-09  0.39076583E-09 -0.39133636E-09  0.16680501E-09  0.19999476E-09
  0.16097469E-09 -0.75888658E-10  0.19446349E-08 -0.64238649E-09  0.35663293E-09
  0.63807610E-09 -0.99553237E-10  0.81077804E-10  0.30313496E-09  0.24742560E-09
  0.33146208E-09  0.54359723E-09 -0.65494515E-09  0.68617832E-09  0.80712075E-09
 -0.60419902E-09 -0.94362531E-10  0.58159732E-09 -0.24023143E-09  0.69370086E-09
  0.19123084E-08  0.18532070E-08  0.52281344E-09  0.54436852E-09 -0.13474018E-08
 -0.12235152E-09 -0.11110239E-11 -0.41399100E-09  0.39895388E-09  0.12866680E-08
  0.10723464E-08  0.35587172E-11  0.42066830E-09  0.70183966E-09 -0.25710789E-10
  0.18508529E-09 -0.75298122E-09  0.54635544E-09  0.66382969E-09 -0.15776658E-08
  0.98268667E-09  0.52787371E-09 -0.61356794E-09 -0.11471662E-10 -0.24740297E-09
  0.29166873E-09  0.55390461E-10  0.17009148E-08  0.85343101E-09  0.76817179E-09
  0.74486859E-09 -0.12581511E-08  0.27434807E-09 -0.19087695E-10  0.82173668E-09
  0.56348332E-08 -0.11366980E-07 -0.62545402E-07  0.58642349E-08 -0.11046688E-07
 -0.16333150E-07 -0.56666497E-08  0.77091393E-08  0.19781194E-07  0.15254095E-07
 -0.54905977E-08 -0.18543016E-07  0.99321164E-08  0.17853535E-07 -0.16450091E-07
  0.89385981E-09  0.59221420E-08  0.24874190E-07  0.55957023E-08  0.16843792E-11
 -0.20204790E-07  0.56710553E-09  0.44081162E-08 -0.32849062E-07  0.19848201E-07
  0.27482519E-07 -0.28664691E-07  0.17487766E-07 -0.96966674E-08 -0.26891332E-07
  0.20733117E-07  0.42613982E-08 -0.57182743E-07  0.31778831E-08 -0.15892999E-07
  0.21209389E-07  0.51944283E-08  0.45801734E-09 -0.10756217E-07  0.97973137E-09
 -0.10333127E-07  0.34582488E-07  0.73214288E-08  0.20082365E-07 -0.32472202E-08
  0.11476753E-07  0.14674327E-07 -0.11548495E-07  0.11499492E-07 -0.23021901E-07
 -0.40105751E-08 -0.13807545E-07 -0.42706319E-07 -0.79338122E-08 -0.10392899E-07
 -0.10515054E-07  0.27725779E-07 -0.55566711E-08 -0.19837058E-07  0.93702816E-09
  0.15352380E-07 -0.68603396E-08  0.14295069E-07  0.31479954E-07  0.32119491E-07
 -0.35032839E-07 -0.52308788E-08 -0.30889548E-07  0.63033490E-08 -0.44638187E-07
 -0.73524614E-08  0.20134213E-07 -0.36406017E-08 -0.20593631E-07 -0.55633845E-07
 -0.12851162E-07  0.88897855E-08  0.12871937E-07 -0.11414639E-07 -0.33483791E-08
  0.50945897E-08  0.34976961E-08 -0.87573937E-08  0.26782339E-07  0.37537253E-07
  0.28706542E-07 -0.10138815E-06 -0.89011515E-08  0.12900072E-07  0.15179947E-07

 -0.33913745E-09 -0.17436035E-09 -0.60626526E-09  0.73146362E-09  0.10864644E-09
 -0.38952437E-09 -0.31402098E-09 -0.22799197E-09  0.26611451E-09 -0.10122404E-08
 -0.23893480E-08  0.45756040E-09  0.79269279E-10 -0.17116721E-09 -0.28150111E-10
 -0.42146159E-09  0.97503425E-10  0.36692315E-09  0.32959280E-09 -0.43212299E-10
 -0.39122687E-09 -0.26383317E-09 -0.19683190E-09  0.34568024E-10 -0.16093208E-09
 -0.11901412E-09 -0.11754001E-10 -0.49400916E-10 -0.64465756E-09  0.47831997E-09
  0.15289822E-09  0.40897478E-09 -0.19858763E-09  0.26761255E-09 -0.15139497E-09
  0.18111182E-09  0.63304850E-10 -0.12617418E-08 -0.29946672E-09 -0.14140259E-09
  0.11063561E-09 -0.21523395E-09 -0.87466142E-09  0.16748572E-09 -0.20732819E-09
  0.26987365E-08 -0.51910458E-09 -0.38900575E-09 -0.43984087E-08 -0.37186853E-08
  0.85135829E-09  0.21888623E-07 -0.87986517E-09 -0.84224643E-09 -0.43262949E-09
 -0.14581508E-09  0.41590395E-09  0.45674351E-11  0.26267568E-09  0.73155050E-10
  0.24823985E-10  0.19714561E-09 -0.22723145E-09  0.25204080E-10 -0.24661509E-09
 -0.33303837E-09 -0.12468385E-09 -0.26430132E-10  0.32184846E-10 -0.25643272E-09
  0.11452697E-09 -0.33933240E-10  0.45314475E-09  0.17832516E-09 -0.17961765E-09
 -0.50566540E-09 -0.29185122E-09  0.14414373E-09 -0.24780612E-09  0.19991411E-09
  0.52318304E-10  0.54750516E-09  0.27642081E-09  0.32410358E-09 -0.58525959E-09
 -0.52278646E-09  0.81134819E-11 -0.25353005E-09  0.14993230E-09  0.18809621E-09
 -0.22682169E-09  0.97490614E-09 -0.45943057E-09  0.16365146E-09  0.42598937E-09
 -0.80430272E-10  0.77522646E-09  0.54692855E-09 -0.23952018E-10  0.60929855E-09
  0.23528283E-09  0.30419824E-09 -0.20523907E-09  0.13888814E-10 -0.11328028E-09
 -0.44530602E-09 -0.67050080E-10 -0.35245459E-09 -0.19052041E-08 -0.53053359E-09
  0.22997805E-09 -0.63305915E-09 -0.11259137E-08  0.63887450E-10  0.52762822E-10
 -0.39460427E-09 -0.92097322E-10 -0.16090708E-08 -0.47031673E-09  0.43606450E-09
 -0.58058055E-10  0.10895434E-09 -0.16084809E-09  0.17522189E-09 -0.31351809E-09
  0.59192893E-10  0.66747798E-09 -0.14700770E-08  0.55115460E-10  0.14879550E-09
  0.36207579E-09 -0.13211145E-09 -0.11460355E-08 -0.26588984E-09  0.77666315E-10
  0.38571900E-08  0.18506257E-07 -0.26909636E-08  0.25547719E-07  0.25811165E-07
 -0.41056183E-07  0.62823999E-07 -0.16982225E-07 -0.29062315E-08  0.19479802E-07
 -0.17609761E-07 -0.53717939E-09 -0.51112383E-07 -0.42131415E-07  0.11306870E-07
  0.41946485E-07  0.48165795E-10  0.25056495E-08 -0.14438755E-07  0.46078800E-07
 -0.12609292E-07  0.94406263E-08 -0.12445031E-07  0.13562505E-07 -0.10622354E-07
  0.89538092E-08 -0.14500804E-08 -0.12993446E-08  0.12716795E-07  0.85215353E-08
  0.13952640E-07  0.93427993E-08  0.44906767E-08  0.19710833E-07 -0.30336173E-08
  0.15830124E-07  0.34023248E-07 -0.93276576E-08 -0.28663698E-08  0.49004192E-07
 -0.18034222E-07 -0.62542954E-08 -0.44074881E-07  0.17594985E-07  0.74886466E-08
  0.23756734E-07  0.16655352E-07  0.27117334E-08  0.11432713E-08  0.36783602E-09
 -0.67989786E-08  0.84368698E-07 -0.20594709E-07 -0.14459806E-08  0.80503498E-08
  0.88272170E-08 -0.83283156E-08  0.47055099E-08 -0.39753286E-07 -0.36810850E-08
 -0.24997060E-07  0.73383461E-08 -0.15751815E-07  0.28340250E-07 -0.58701766E-08
 -0.21803231E-07  0.50381802E-07  0.32142169E-07 -0.35912796E-07 -0.14842212E-07
  0.49965116E-07  0.60410139E-07  0.19508038E-07  0.39602765E-08  0.97440624E-08
  0.69954136E-08  0.40609410E-07 -0.15897525E-07 -0.17523643E-07  0.17887191E-08
  0.13620972E-07  0.30647978E-07 -0.67706255E-07 -0.56417452E-08 -0.31869468E-07
  0.61169240E-07 -0.11094333E-07  0.42746870E-07 -0.99393401E-08 -0.11105536E-07

 -0.59194497E-11 -0.34552761E-08 -0.47328935E-09  0.20331683E-09  0.35294674E-09
 -0.33169311E-09 -0.72588350E-09 -0.10817997E-08  0.26924228E-09 -0.10893259E-08
 -0.25676875E-08  0.10531159E-08 -0.25124875E-10  0.14033022E-09 -0.51180329E-09
 -0.31403400E-10 -0.80149744E-09  0.18947387E-10  0.34365019E-09 -0.28909305E-08
 -0.71513225E-09 -0.14586839E-09 -0.21135099E-09 -0.13826766E-10 -0.15407873E-09
 -0.54651398E-09 -0.67946677E-10  0.32335751E-10 -0.28351239E-08 -0.84405730E-09
  0.17825191E-09 -0.16173147E-10 -0.41318572E-09 -0.21114030E-09 -0.66421106E-09
 -0.18457444E-09  0.59552775E-09 -0.27463165E-08 -0.11880167E-08  0.37736201E-10
  0.65630525E-10 -0.18647010E-09  0.41050284E-09 -0.78958602E-09 -0.71949576E-10
 -0.24078864E-09 -0.36926171E-08  0.60256856E-09 -0.18028358E-08 -0.51642566E-09
  0.83793105E-09 -0.87986517E-09  0.20301638E-07 -0.17784192E-08  0.65799202E-09
 -0.31089299E-08 -0.87178593E-09 -0.65552848E-10 -0.65846584E-11 -0.67043136E-10
 -0.65016476E-10 -0.10443293E-08 -0.41539926E-09 -0.74924748E-09 -0.31835711E-08
 -0.35440545E-09  0.87498252E-09 -0.14698870E-09 -0.48228599E-09 -0.41793110E-09
 -0.81693023E-09 -0.10477812E-09  0.10725600E-08 -0.24431477E-08  0.10065659E-09
 -0.44729128E-09  0.25726297E-09  0.28308893E-09  0.35269371E-09  0.56947463E-10
 -0.56757136E-10  0.77203999E-10 -0.30795039E-08 -0.42183874E-09 -0.52870584E-10
 -0.26643334E-09  0.19230086E-09  0.16355409E-09 -0.42621410E-09 -0.15956415E-09
  0.70787516E-09 -0.38401602E-08 -0.46972481E-09 -0.71807433E-09 -0.33453727E-09
  0.57885226E-09 -0.55326137E-10  0.95190006E-10  0.12511901E-09  0.71996541E-09
 -0.34663370E-08 -0.76783706E-09  0.19703281E-09  0.12562111E-10 -0.15146597E-09
 -0.16746270E-09 -0.15981722E-08 -0.52745242E-09 -0.77345583E-09 -0.25397543E-08
  0.15057544E-08  0.63194484E-09  0.15549198E-09  0.19285240E-09 -0.74245827E-09
 -0.52829862E-09 -0.50773833E-10 -0.89464901E-09 -0.31315866E-08 -0.25289257E-09
  0.77083796E-10  0.72040246E-11 -0.33152352E-09  0.51593098E-09 -0.52970313E-09
  0.15103760E-09 -0.67915002E-09 -0.39574055E-08  0.14560245E-08 -0.29460284E-09
 -0.35242667E-10  0.81081541E-11  0.19777866E-09 -0.10380665E-08  0.44432293E-09
 -0.80080410E-08  0.17650120E-07 -0.17491247E-07  0.61855403E-08  0.69690893E-08
  0.49660892E-08  0.66547137E-08  0.15091223E-07 -0.16343288E-07 -0.12909052E-07
  0.11334293E-07  0.60683184E-08  0.31064711E-07  0.42978457E-08  0.49289830E-08
 -0.49573953E-07  0.30401331E-08  0.28859607E-08  0.85620140E-08  0.33017663E-08
 -0.16202359E-07  0.22504867E-07 -0.22210895E-07  0.12572989E-07 -0.10812299E-07
 -0.21037589E-07 -0.50529399E-09 -0.26262820E-07 -0.47618161E-08  0.11021457E-07
 -0.38113577E-07  0.23062683E-07 -0.15142719E-07  0.15038289E-07  0.14062739E-09
  0.13504797E-07 -0.23419681E-07  0.10619270E-07  0.30894450E-07 -0.75505990E-08
 -0.11767837E-07  0.23169903E-07  0.27447187E-07 -0.52348275E-08  0.19836947E-07
 -0.94377142E-08  0.17854686E-07  0.34810765E-08  0.25081360E-07  0.48622382E-08
 -0.28254346E-07 -0.23560165E-07 -0.13845248E-07 -0.78272278E-08  0.21920121E-07
  0.75796573E-08 -0.52511657E-08  0.95800372E-08  0.24962615E-08 -0.18449833E-08
 -0.12448827E-07  0.42989684E-08  0.15347561E-07 -0.21777171E-07 -0.16857767E-07
  0.34033638E-07 -0.44377144E-07  0.43323290E-07 -0.45718909E-08  0.25288021E-07
 -0.45235240E-07 -0.19183345E-07  0.11330675E-08  0.43292589E-08 -0.19113544E-07
  0.98633005E-08  0.72002066E-08 -0.57432566E-08  0.90266696E-08  0.10806315E-07
  0.18403646E-07 -0.75981379E-07 -0.41111199E-08  0.37336862E-07  0.21944839E-07
  0.15716141E-07  0.11500477E-07  0.31621998E-07  0.40900674E-07 -0.41389321E-08

 -0.80933586E-09  0.45764998E-08 -0.47401098E-09 -0.30424896E-09 -0.30556540E-09
  0.26785458E-09  0.28383359E-09  0.12695388E-09 -0.26284506E-09  0.24703401E-09
  0.35478231E-08 -0.10063366E-09 -0.26540357E-09  0.20816219E-09  0.27054872E-09
  0.36956262E-09  0.86371209E-10  0.10371377E-11 -0.52123927E-09  0.54118067E-08
  0.52546774E-09 -0.20559050E-09  0.41311880E-10  0.48049042E-10 -0.10576101E-09
  0.25158295E-10  0.26237641E-10  0.29708885E-09  0.44857788E-08 -0.38632816E-09
 -0.15357193E-09  0.12690324E-09 -0.29091172E-09  0.11954204E-09  0.78523121E-10
  0.13168080E-09 -0.35687471E-09  0.45955812E-08  0.40962694E-09 -0.19374103E-09
  0.46597800E-09  0.43200274E-09 -0.11787579E-09 -0.13037169E-09 -0.77898938E-09
 -0.66277434E-09  0.37084419E-08  0.71601487E-09  0.61946133E-09 -0.17545385E-08
 -0.13498276E-08 -0.84224643E-09 -0.17784192E-08  0.16327261E-07  0.25162069E-09
  0.33803638E-08  0.28465733E-09  0.46730360E-10 -0.18386306E-09  0.27273218E-10
 -0.12733171E-09  0.42056797E-09 -0.32268589E-10 -0.27576460E-09  0.41024927E-08
 -0.25495087E-09 -0.31777016E-09  0.30129895E-09  0.18737287E-09 -0.14300535E-09
  0.10931285E-09  0.22941690E-10 -0.34012181E-09  0.62005244E-08  0.33419517E-09
  0.83407929E-10  0.47805211E-09 -0.38857722E-09 -0.41578098E-10 -0.10498538E-09
 -0.12018080E-09  0.54485663E-09  0.48348860E-08  0.38273265E-09 -0.27214188E-09
  0.25356180E-09  0.98859170E-10  0.14061409E-09 -0.34332959E-09 -0.31058388E-09
 -0.37684899E-09  0.44989020E-08  0.83061416E-10  0.20359537E-09  0.46510390E-09
 -0.40011279E-09  0.78192006E-10  0.16518430E-09  0.70090672E-09  0.15364096E-09
  0.56001477E-08  0.36039700E-09 -0.26838907E-09 -0.15588062E-09  0.29078946E-09
 -0.30843850E-09 -0.22741236E-10 -0.95024378E-09  0.22192239E-09  0.44793351E-08
 -0.16026265E-08  0.42672632E-09 -0.13798314E-08 -0.68445105E-09 -0.55833983E-10
 -0.51529888E-09  0.10283956E-08  0.69573864E-09  0.56160971E-08 -0.17247932E-09
 -0.22817163E-09 -0.41497496E-09  0.36263210E-10  0.17512291E-09 -0.32387538E-10
 -0.10566857E-09 -0.30502527E-09  0.48415847E-08 -0.84239140E-10  0.64172228E-10
 -0.81028253E-09 -0.24387487E-09  0.11463215E-09  0.14951342E-09 -0.89945755E-09
 -0.17898468E-08  0.31214361E-08  0.38281420E-07  0.50331065E-08 -0.45557462E-09
 -0.52857063E-08  0.18726395E-07 -0.12269890E-07  0.96286437E-10  0.25677885E-08
 -0.25512746E-07  0.84592750E-08 -0.13412456E-08 -0.10556805E-07 -0.54351521E-08
  0.38578572E-08 -0.10571169E-07 -0.33396879E-07  0.11829611E-07 -0.31069412E-07
  0.90021235E-08 -0.86574257E-08  0.21375076E-08  0.25267941E-08 -0.29924776E-10
  0.12640882E-07 -0.81894234E-08  0.10237373E-07  0.63653940E-08  0.11011110E-07
  0.91889329E-08 -0.95362867E-08 -0.20490438E-07  0.70004545E-08  0.13177312E-07
 -0.19158078E-08 -0.10712029E-07 -0.20310046E-07  0.84577356E-08  0.78285636E-08
 -0.14515580E-07  0.13383947E-07 -0.55532561E-08  0.13781025E-08 -0.38550527E-07
  0.38437444E-08  0.22778438E-07  0.50493019E-08 -0.16256982E-07 -0.17106913E-07
  0.11271281E-07  0.12120836E-07 -0.34420301E-08  0.22166763E-07  0.93813680E-08
  0.86346266E-09  0.25591836E-07 -0.75052944E-08 -0.16133935E-07  0.20632450E-07
  0.42633010E-08 -0.54286954E-08 -0.25120122E-08 -0.22857674E-07 -0.40779053E-07
  0.43994830E-07  0.34807569E-07 -0.10362721E-07 -0.94351058E-08  0.66047648E-07
 -0.29744125E-07 -0.50775442E-07  0.74638171E-08  0.23703735E-07  0.15826564E-07
  0.33505985E-08 -0.22909896E-07 -0.63533190E-09  0.81869792E-08  0.11450342E-08
 -0.77421766E-08  0.21619776E-08 -0.90414748E-08 -0.86903177E-08 -0.52726426E-08
 -0.39347710E-08 -0.11320221E-07  0.90948269E-08 -0.37774259E-08  0.25724963E-07

 -0.90059616E-09  0.10570832E-07 -0.17590532E-08  0.14813207E-08 -0.38716540E-09
 -0.72493752E-09 -0.11780512E-09  0.31362931E-09 -0.31077048E-09  0.11017388E-08
  0.11366713E-07 -0.16477435E-08  0.26067928E-08  0.91579346E-10 -0.53984935E-09
  0.14189036E-09 -0.56865132E-09  0.37021080E-09  0.18005276E-08  0.74348572E-08
  0.30384906E-09  0.38583995E-08  0.45358280E-09 -0.75393034E-09  0.88516182E-09
 -0.78907998E-09  0.78194906E-10 -0.58831960E-08  0.13909845E-07  0.50229233E-09
 -0.20447357E-09  0.38495401E-09 -0.42162694E-09 -0.43875676E-09  0.97972471E-09
  0.93081509E-10 -0.44029902E-09  0.10231714E-07  0.23020968E-09 -0.34982623E-08
  0.45598573E-10  0.99791902E-10  0.73994325E-09 -0.10867718E-08  0.15139279E-09
  0.25810281E-08  0.12503716E-07 -0.64434991E-10  0.64165399E-09  0.11984464E-09
 -0.38519303E-09 -0.43262949E-09  0.65799202E-09  0.25162069E-09  0.10344136E-06
  0.11319391E-07 -0.15220361E-09 -0.16812028E-08 -0.12077276E-09  0.15934409E-09
 -0.11146099E-08 -0.35072248E-09 -0.34629712E-09  0.12524661E-08  0.85523417E-08
 -0.19851604E-08 -0.10716960E-08 -0.32952434E-09  0.10320047E-08 -0.65415484E-09
 -0.38576790E-09  0.38551344E-09  0.59908501E-09  0.11238537E-07  0.58731719E-10
 -0.94742299E-09 -0.35331588E-09 -0.10688057E-09  0.72608465E-09  0.49895316E-09
 -0.41373186E-09  0.24914084E-08  0.10281033E-07  0.50963712E-09 -0.90124005E-09
  0.18063208E-09  0.39961315E-09  0.45511095E-09  0.45039182E-09 -0.63680958E-09
  0.17908117E-08  0.11765451E-07 -0.22301922E-08  0.25557499E-08 -0.65910003E-09
 -0.11199520E-09 -0.60649661E-09 -0.26608415E-09  0.10515337E-08 -0.17427955E-08
  0.97693422E-08 -0.25711613E-10 -0.42254889E-09  0.90194929E-09 -0.47089808E-09
  0.13299237E-09 -0.11329045E-08  0.30302561E-10 -0.12295634E-09  0.90469354E-08
  0.67925103E-09  0.19638720E-08 -0.30434655E-09  0.54496480E-09  0.15846501E-09
 -0.71967088E-09  0.10223544E-10 -0.26372515E-08  0.11255539E-07 -0.24903718E-08
  0.20960831E-08 -0.10227075E-09 -0.50255866E-09  0.13035277E-08  0.10317383E-08
 -0.44008893E-10 -0.95260957E-09  0.12068869E-07 -0.53460615E-09  0.21460522E-08
 -0.45832601E-09 -0.99516478E-10 -0.20073036E-09  0.80193492E-09 -0.42840448E-10
 -0.58754548E-07 -0.35240542E-07  0.62341658E-07 -0.11963593E-06  0.45018464E-07
  0.23279727E-07 -0.37203423E-07  0.17592646E-07  0.45862726E-07  0.44882679E-07
 -0.40876880E-07  0.29944842E-08  0.60920224E-07 -0.94246422E-08 -0.41007727E-07
 -0.85830123E-08  0.44626397E-08 -0.38225010E-07  0.14051140E-07  0.89004658E-07
  0.70119371E-07  0.19468079E-06  0.33192155E-08 -0.53037314E-08 -0.65474653E-07
 -0.38279721E-07  0.13301049E-07  0.27014569E-07  0.10019711E-07  0.34251043E-07
 -0.32886425E-07 -0.58641834E-08  0.14043874E-07 -0.83400643E-07 -0.29756740E-07
  0.21525013E-07  0.49363497E-07 -0.13647817E-06  0.11337003E-07  0.14096633E-06
  0.21749515E-07  0.10182236E-06 -0.13604954E-06  0.67907978E-07 -0.68235092E-08
 -0.15646035E-06 -0.86781055E-07 -0.40576415E-07  0.53520635E-07  0.49851629E-07
 -0.30510966E-07 -0.52389921E-07  0.84236711E-07  0.76269177E-07  0.13889248E-06
 -0.79227027E-08  0.45290536E-07 -0.30528924E-07  0.19850703E-07  0.64010462E-07
  0.60033951E-08  0.24792229E-07  0.56828754E-07 -0.34258709E-07 -0.22243920E-07
 -0.67924249E-08  0.24985382E-07 -0.26709785E-07  0.10581318E-07  0.34238246E-07
 -0.96042079E-07 -0.11862510E-07 -0.13691535E-06 -0.37178274E-07  0.55645762E-07
  0.49621757E-07 -0.91254089E-07  0.96612270E-08 -0.45153253E-07 -0.68342936E-07
  0.12163801E-07 -0.94806532E-07  0.10638206E-06 -0.13311961E-07 -0.22796242E-07
  0.26475928E-07  0.19665355E-07 -0.48495254E-07 -0.96146344E-07 -0.25538246E-07

 -0.79807868E-09  0.21672670E-05 -0.25859609E-08  0.50026091E-08  0.13022537E-08
  0.29682096E-08 -0.60092708E-08 -0.16098778E-08 -0.45479694E-08  0.26424286E-08
  0.21529258E-05 -0.71417503E-08  0.16615761E-08 -0.84634088E-08  0.25147936E-08
 -0.24353217E-08  0.20896818E-08  0.21311303E-08 -0.29749327E-08  0.21655202E-05
  0.52497783E-08  0.26883536E-08  0.11996345E-07 -0.14252000E-08  0.42033303E-08
  0.11960531E-08 -0.40595442E-09  0.51477410E-08  0.21474792E-05  0.52868893E-08
 -0.57201459E-09  0.35348781E-08  0.15884679E-08  0.47269942E-08  0.10477358E-08
  0.15040382E-08 -0.36752931E-08  0.21446544E-05  0.62843158E-08  0.22932131E-08
 -0.40404875E-08  0.20551471E-09  0.14323319E-08  0.31113424E-08  0.14917049E-08
 -0.23699574E-08  0.21299645E-05 -0.73678258E-10  0.12246825E-08  0.19386406E-08
  0.18945042E-08 -0.14581508E-09 -0.31089299E-08  0.33803638E-08  0.11319391E-07
  0.22397988E-05 -0.46512641E-08 -0.84548743E-09  0.60899315E-08  0.91293381E-10
 -0.30479885E-08 -0.16054471E-08  0.33795642E-08  0.13861165E-08  0.21471281E-05
  0.51693898E-08 -0.40623018E-08  0.86946973E-08  0.40205749E-09 -0.29213887E-08
 -0.85159899E-10  0.34891574E-09 -0.95487723E-08  0.21221432E-05 -0.96388645E-08
  0.47091098E-08 -0.67478811E-08  0.14905273E-08 -0.50652990E-09  0.70573227E-09
  0.71958922E-09  0.66228791E-08  0.21383068E-05 -0.19898663E-08  0.50721931E-08
 -0.12896202E-08 -0.99271112E-09  0.43169511E-08  0.27799876E-09 -0.26166595E-09
  0.27621235E-09  0.21742883E-05  0.10127632E-07 -0.12916781E-08 -0.76993139E-09
  0.37780195E-08 -0.36978769E-08  0.48580543E-09 -0.17795545E-08  0.11432414E-07
  0.21412785E-05 -0.31347307E-08 -0.30392519E-08  0.10622164E-07  0.59272839E-09
 -0.25300306E-09 -0.28221290E-08  0.14654389E-08 -0.17512845E-08  0.21505693E-05
  0.71612431E-09  0.40722364E-08 -0.94369016E-08  0.11761521E-08 -0.22287876E-08
  0.13955725E-08 -0.19489154E-08  0.30509508E-08  0.21510042E-05 -0.17352788E-08
  0.33370027E-08  0.16561224E-08  0.28701501E-08 -0.46358204E-09 -0.22062317E-08
  0.54083523E-08  0.33256476E-08  0.21528764E-05 -0.58969415E-08  0.43824194E-08
 -0.42020551E-08  0.95455127E-09 -0.96156057E-10 -0.10333563E-08 -0.31588681E-08
 -0.46006018E-06 -0.96954396E-05  0.16506870E-05 -0.57460648E-07  0.19804327E-05
 -0.47761267E-07  0.16700617E-06 -0.13111304E-07 -0.52450877E-07  0.16241753E-05
 -0.20387904E-05 -0.53397489E-06  0.14666306E-06 -0.64967686E-07  0.11557408E-06
  0.60584136E-06 -0.41931686E-06 -0.80283746E-08  0.19211877E-05 -0.33381784E-05
 -0.21820586E-06  0.65956069E-06 -0.63940750E-06 -0.66716529E-07  0.55503345E-07
  0.72711162E-06 -0.12378033E-05  0.46047710E-06 -0.84073660E-06  0.37932718E-07
 -0.72244537E-07 -0.50965517E-06  0.20331670E-06 -0.23903434E-06  0.43213460E-06
 -0.41327426E-06  0.13806770E-05 -0.33339771E-05 -0.10805627E-06 -0.62015424E-06
  0.33061008E-06  0.47111339E-06 -0.44540415E-06 -0.40590726E-06 -0.31224859E-06
  0.14017637E-06 -0.22304544E-05  0.55547674E-06  0.29020233E-06 -0.10329408E-05
  0.23375180E-06  0.83017521E-06 -0.13939945E-06  0.37857495E-06  0.18353628E-05
 -0.35941440E-05  0.49942454E-06  0.19869180E-06 -0.87379505E-06  0.56013272E-06
 -0.69444052E-07  0.16216097E-06  0.61310363E-06  0.11751656E-05 -0.22604513E-05
 -0.44491972E-06 -0.19043068E-06 -0.69710102E-06  0.33223106E-07  0.26995468E-07
  0.10786342E-06 -0.48532967E-06  0.80800827E-06 -0.31917122E-05 -0.67280444E-06
 -0.36686422E-06  0.22859040E-06  0.74017868E-06  0.51004118E-06 -0.40724810E-06
  0.99821530E-07  0.57631963E-07 -0.18013206E-05  0.43224006E-06 -0.90326343E-07
  0.66499079E-06  0.28953843E-06 -0.71668205E-06  0.82886192E-06 -0.10517474E-05

 -0.16480914E-08 -0.33422401E-08  0.73130610E-09 -0.40416705E-09  0.60466425E-09
  0.20018845E-08 -0.31465230E-09 -0.80366240E-09  0.25106191E-09 -0.13901700E-08
 -0.29678856E-08  0.92880288E-09 -0.92448273E-09  0.61572091E-09  0.55445521E-09
  0.64591483E-09  0.23149397E-09  0.17420547E-09  0.10417843E-08 -0.12392325E-08
  0.16512431E-08  0.17345626E-09  0.77135577E-09 -0.14666047E-08  0.19629467E-09
  0.32506947E-09 -0.38562531E-09  0.51074854E-09 -0.24331957E-08  0.16798959E-08
  0.82089998E-09  0.38948582E-09 -0.51158344E-09  0.11613257E-09 -0.53863850E-09
  0.39232913E-09  0.69771073E-09  0.70572684E-09 -0.17365216E-08 -0.21540731E-09
  0.99573116E-09 -0.14226675E-08 -0.13210188E-09 -0.14276583E-08  0.11245890E-08
 -0.25264430E-09 -0.12391390E-08  0.18923621E-08  0.13572617E-08 -0.34644944E-09
 -0.10419878E-08  0.41590395E-09 -0.87178593E-09  0.28465733E-09 -0.15220361E-09
 -0.46512641E-08  0.89722373E-07  0.30355258E-09 -0.54135587E-09 -0.23032884E-09
 -0.20522544E-09 -0.68472333E-09 -0.78250801E-09 -0.15286790E-08 -0.22899364E-08
 -0.21176445E-08 -0.28286055E-09 -0.33361875E-09  0.34610012E-09  0.36125810E-09
  0.82820684E-09 -0.32181604E-09  0.47347838E-09 -0.21614401E-08 -0.63297856E-11
  0.12781164E-08 -0.53913336E-09 -0.12530408E-08 -0.30631699E-09 -0.10221132E-08
  0.77649198E-09  0.48507015E-09 -0.38581498E-08 -0.16210986E-08 -0.26160093E-09
 -0.97477845E-09  0.25466946E-08 -0.53659910E-09  0.61478428E-09 -0.23190715E-09
 -0.25827438E-08 -0.60398804E-08 -0.12105816E-09  0.45443422E-11 -0.36336282E-09
 -0.14967409E-09  0.10458122E-08  0.14243157E-09  0.10012289E-08  0.11852637E-08
 -0.26296362E-08 -0.90813420E-09 -0.47935182E-09 -0.64183713E-09 -0.56577032E-09
 -0.12418393E-09 -0.29868946E-10 -0.45060599E-09  0.13914408E-10 -0.17798985E-08
  0.11720147E-08 -0.63214233E-09  0.18881408E-09  0.92237909E-10 -0.46801493E-10
  0.15457497E-08  0.51587933E-09 -0.22776409E-08 -0.13009192E-08 -0.13035812E-08
  0.11990909E-08  0.20715450E-09 -0.48156608E-09 -0.10063387E-09 -0.23012361E-10
  0.13949718E-08 -0.44480907E-09 -0.27717483E-08 -0.16703719E-08  0.46985873E-09
  0.70440539E-09  0.75095507E-09  0.17930638E-09  0.66587750E-09 -0.15421279E-08
  0.24384099E-07  0.41646168E-07 -0.96427982E-07 -0.47221249E-07  0.78773185E-07
  0.11187425E-07  0.52226453E-07 -0.36956784E-07 -0.75784300E-07  0.98306316E-08
  0.90579807E-07  0.82495819E-07 -0.15906515E-07 -0.59360990E-07  0.49170775E-07
  0.10077377E-08  0.40364006E-08 -0.74698933E-07  0.94122946E-07 -0.47379823E-07
  0.69171391E-07 -0.11531490E-07 -0.42569958E-07 -0.90550517E-07  0.16808949E-07
  0.22905144E-07  0.17707420E-07  0.33163682E-07  0.86351009E-07  0.81934344E-07
 -0.46442388E-07  0.20762576E-08  0.29722175E-07  0.20609227E-07 -0.31792861E-07
 -0.12163537E-07  0.38882288E-07 -0.20789005E-07 -0.15508513E-06  0.94592744E-07
 -0.42551702E-07 -0.11115643E-07 -0.23680627E-07  0.16853699E-06 -0.18083465E-07
 -0.39079552E-07 -0.42816504E-07  0.20400624E-07 -0.88020465E-08 -0.16706445E-07
  0.17837419E-06  0.60522881E-07  0.83316191E-08 -0.32762799E-07  0.10490415E-06
 -0.16587241E-08  0.11304900E-06 -0.29061698E-07  0.10478148E-07  0.59206928E-07
  0.53387924E-07  0.89110871E-07 -0.46385899E-07  0.16060318E-07 -0.66508606E-07
 -0.95695535E-07 -0.21283228E-07 -0.16947456E-07 -0.10119115E-06  0.16821206E-08
 -0.20485336E-07  0.63004417E-07  0.44076571E-07 -0.40727232E-07  0.25754250E-07
 -0.10999372E-07 -0.40262948E-07  0.17250982E-07 -0.83319384E-08 -0.38681010E-07
  0.13101633E-07  0.24562316E-07  0.39301749E-07 -0.11391391E-06 -0.72359055E-07
  0.26997036E-07 -0.10118239E-06 -0.17639765E-07 -0.15389678E-07  0.80025786E-07

 -0.10714122E-08 -0.83351102E-09 -0.42912527E-09 -0.18448539E-08  0.11739449E-08
  0.45447406E-09  0.77959005E-11 -0.49794883E-09 -0.25216138E-09 -0.92633791E-09
 -0.29770355E-09 -0.53922473E-10  0.56012408E-09  0.11397984E-08  0.62594143E-09
 -0.10805519E-09 -0.62331371E-10 -0.11251838E-09 -0.15223106E-08 -0.95178516E-09
 -0.41961425E-10 -0.85390725E-10  0.72933428E-09  0.59509607E-09 -0.18717760E-10
 -0.26470805E-09 -0.28810611E-09  0.37621679E-10 -0.84003299E-09  0.34654054E-09
 -0.54146516E-09  0.99265729E-09  0.10280842E-08 -0.47536707E-09  0.93677906E-11
  0.48893455E-10  0.15712578E-09 -0.64831954E-09 -0.40632694E-09 -0.14232081E-09
  0.62274463E-09  0.75573155E-09 -0.61556125E-09  0.41960480E-09 -0.95036381E-10
 -0.46787550E-09  0.10703613E-09 -0.59200285E-09 -0.37674762E-09  0.53535792E-09
  0.58830988E-09  0.45674351E-11 -0.65552848E-10  0.46730360E-10 -0.16812028E-08
 -0.84548743E-09  0.30355258E-09  0.36314893E-07 -0.88834555E-08 -0.70994721E-08
 -0.10670765E-08 -0.20238516E-08  0.10831848E-09 -0.12843860E-09 -0.10817939E-08
  0.12415993E-09 -0.10026822E-08  0.62798511E-09  0.56730078E-09  0.17730341E-09
  0.68144068E-11 -0.75532602E-10 -0.22149148E-10  0.56785439E-09 -0.83659845E-09
 -0.35672926E-09  0.10194852E-08  0.62537421E-09 -0.83983080E-09  0.62089686E-09
  0.19565199E-09  0.20427499E-09 -0.85075912E-09  0.12690630E-08  0.44277831E-09
  0.29058526E-09  0.31029301E-09  0.25980430E-09 -0.56513469E-09 -0.11673373E-09
 -0.33520798E-08 -0.21462052E-09  0.64606570E-09 -0.15054941E-08  0.88430525E-09
  0.75570022E-09 -0.20898062E-09  0.18542233E-09  0.63869019E-10 -0.54921653E-09
  0.65760964E-09 -0.32754006E-09 -0.77069104E-09  0.26758721E-09  0.70118744E-09
  0.56377694E-09  0.61616089E-10 -0.31707931E-09  0.12210274E-08 -0.18890468E-08
  0.34108545E-09 -0.16743196E-10  0.75973339E-09  0.44117572E-09  0.20374985E-09
  0.15261807E-09 -0.22025383E-09 -0.20826417E-09 -0.82709806E-09  0.64465474E-09
 -0.14909851E-08  0.11997201E-08  0.90308038E-09  0.35616849E-10  0.27620103E-09
  0.11202771E-09 -0.51932402E-09  0.12354868E-08  0.32154546E-09 -0.15104029E-08
  0.34267964E-09  0.91832171E-09  0.89692814E-09 -0.54701711E-10  0.13123462E-09
  0.10160493E-08 -0.32192069E-07 -0.12356620E-07  0.49265445E-07 -0.14863863E-07
 -0.44440340E-07  0.24199317E-08 -0.18758553E-07  0.40499466E-08 -0.24578659E-08
 -0.11624242E-07 -0.17004365E-07  0.31720965E-07  0.30493636E-07 -0.96153702E-08
 -0.26476419E-07 -0.18541493E-07  0.15633095E-07  0.49892478E-07  0.45161938E-07
  0.62312208E-08 -0.15860179E-07  0.68004166E-08 -0.22277043E-07 -0.15368953E-08
 -0.29671645E-07 -0.12073902E-07 -0.78046835E-08 -0.52576664E-08 -0.62881642E-08
 -0.42988348E-07  0.10299596E-07  0.12207228E-07 -0.20177886E-07  0.30726837E-07
 -0.17603491E-07 -0.48933417E-07 -0.15948956E-07  0.58997523E-08  0.11161269E-06
  0.94747537E-09 -0.35993416E-07 -0.19021237E-07 -0.13589674E-07  0.81160509E-08
 -0.33787306E-08 -0.15218165E-07  0.84889536E-08 -0.44503768E-07  0.83356848E-08
  0.10841849E-07 -0.10378382E-07  0.17791407E-08  0.14877891E-08 -0.56389594E-07
  0.16746542E-07 -0.11131368E-07 -0.26161018E-07  0.35254824E-08  0.21142709E-07
  0.25228823E-07  0.51891376E-07  0.19565809E-08  0.35569844E-07  0.16465696E-07
  0.23524648E-07 -0.78460545E-07  0.75884490E-08  0.91945265E-08  0.88687828E-08
 -0.45562279E-08 -0.53335587E-08  0.68509461E-07  0.24360844E-07 -0.32272864E-07
  0.61656545E-07 -0.40148719E-07  0.13847796E-07  0.41308405E-08 -0.21113443E-07
  0.29243284E-08 -0.37809886E-07 -0.15781750E-07  0.28015506E-08  0.54030719E-07
 -0.74140325E-08 -0.20417913E-07  0.84097074E-08 -0.22396969E-07  0.76695851E-08

  0.45361998E-09  0.26807630E-08  0.31056254E-09  0.12723343E-08 -0.24022260E-08
  0.10946801E-08  0.36491773E-09 -0.16319117E-09  0.38182983E-09  0.13344036E-08
  0.80900505E-09  0.10235003E-09  0.89736757E-09 -0.20024719E-08  0.57975793E-09
  0.52206138E-10  0.83701916E-10  0.10358866E-09 -0.50603303E-09 -0.18028158E-08
 -0.21303107E-09  0.49389363E-09  0.98574042E-09  0.24742810E-09 -0.26618895E-09
 -0.16983496E-09  0.78625151E-09  0.79212802E-10 -0.18465397E-09 -0.14930397E-09
  0.70341604E-09 -0.22455168E-08  0.85281735E-09 -0.84084041E-10  0.86242907E-10
 -0.28234979E-09 -0.15437054E-10 -0.50086501E-10  0.27008943E-09  0.60729792E-09
 -0.13727424E-08  0.80257995E-09  0.97707311E-10  0.35401808E-10  0.23515777E-09
  0.57508750E-09  0.60182584E-09  0.11339392E-09  0.58076781E-09 -0.64929145E-09
  0.62236983E-09  0.26267568E-09 -0.65846584E-11 -0.18386306E-09 -0.12077276E-09
  0.60899315E-08 -0.54135587E-09 -0.88834555E-08  0.34697165E-07 -0.74290474E-08
 -0.60055981E-09 -0.59467385E-09 -0.34001622E-09  0.48436942E-09  0.21266102E-08
  0.66186388E-10  0.68851964E-09 -0.16658327E-08  0.41538759E-09  0.10547037E-09
 -0.33556925E-10  0.44818317E-10  0.44197485E-10  0.43787412E-10  0.44016556E-09
  0.99244704E-09 -0.18642869E-08  0.63517881E-09 -0.55743215E-09  0.19613154E-09
 -0.53797213E-09 -0.28935242E-09  0.17514770E-08 -0.36803183E-09  0.25476376E-09
 -0.74851611E-09  0.44910512E-09 -0.22916864E-09  0.16224869E-09  0.40007399E-09
 -0.19908392E-09 -0.43943860E-09 -0.26811540E-10  0.76780217E-09 -0.18941718E-08
  0.43493060E-09 -0.21607786E-09 -0.48024054E-10  0.13412799E-09  0.10033296E-10
  0.61131647E-10 -0.10483341E-08  0.11461223E-09  0.81680192E-09  0.56870567E-09
  0.64117948E-09 -0.23036264E-09  0.56858847E-09 -0.78166614E-09  0.22691259E-08
  0.27861856E-09  0.81636456E-09 -0.19432094E-08  0.70350853E-09  0.22559027E-09
 -0.59080137E-10  0.38047955E-09 -0.17204626E-09  0.15196844E-08  0.29467857E-09
  0.11309232E-08 -0.17239806E-08  0.69236340E-09 -0.14713643E-09  0.10986977E-09
 -0.32413211E-09 -0.68176506E-09  0.23440685E-08 -0.77680822E-09  0.54165486E-09
 -0.12673414E-08  0.61740253E-09 -0.24671798E-10  0.70469869E-10  0.48848762E-09
  0.10967121E-07  0.80099172E-08  0.76467261E-08 -0.46525186E-10  0.12847371E-07
  0.93898351E-08 -0.70572242E-08  0.96837094E-08  0.14318427E-08  0.30650075E-07
 -0.20432660E-07  0.20813749E-07  0.58791026E-08  0.91630009E-08 -0.78976971E-08
  0.17610107E-08 -0.47751586E-08 -0.88906061E-08  0.42511267E-08 -0.31953835E-09
 -0.51903927E-08 -0.80039238E-08 -0.39759766E-08  0.40155788E-08  0.16583760E-07
  0.70618499E-08  0.18859079E-07  0.33247513E-07 -0.60870519E-07 -0.28114170E-09
 -0.24782908E-08 -0.34995199E-07  0.52425964E-08  0.10153612E-07 -0.76552874E-08
 -0.18343520E-08  0.11531224E-07  0.28137378E-07 -0.44703006E-08 -0.21880654E-07
 -0.23601882E-07  0.20479039E-07  0.11821373E-07 -0.45715612E-08  0.19758222E-08
  0.26114196E-07 -0.34534424E-08  0.13085383E-07  0.96647496E-08 -0.89347226E-07
  0.42264187E-08  0.72226386E-08 -0.46518254E-08 -0.71375199E-08  0.93419188E-08
  0.38225368E-07  0.38154298E-07 -0.62433270E-08 -0.44261808E-07  0.13860281E-07
  0.43806465E-07 -0.11753125E-07  0.31992374E-07 -0.23308370E-07  0.77052468E-07
  0.23327207E-09  0.47549758E-08 -0.43302445E-07  0.16947569E-07 -0.53737805E-08
 -0.78406478E-08  0.16643745E-07  0.11961954E-07 -0.51588785E-07  0.14086550E-07
 -0.26504642E-07  0.92448803E-07  0.14043511E-07  0.22808555E-08 -0.59724944E-09
 -0.25250099E-07 -0.23424075E-07 -0.32580603E-07  0.29643440E-08  0.66651960E-09
  0.50594074E-08 -0.30363326E-08 -0.12293039E-07 -0.23677843E-08 -0.26475679E-07

  0.47630163E-10  0.72679482E-09  0.12089515E-09  0.43369797E-09  0.87692124E-09
 -0.12879375E-09 -0.13881235E-09  0.19150382E-09  0.36912683E-09  0.40663904E-10
  0.12332966E-08  0.86294896E-09  0.68261889E-09  0.64927150E-09 -0.40921032E-09
  0.18147014E-10  0.42299046E-10  0.10949101E-09  0.94455537E-09  0.16988321E-08
  0.89379523E-09  0.52176212E-09  0.27208519E-09 -0.96673266E-09 -0.68897455E-11
 -0.10960353E-09  0.40870464E-09  0.25901763E-09  0.17899355E-08  0.63886727E-10
  0.80552742E-09  0.98986458E-09 -0.13017284E-08 -0.20266711E-10 -0.22115618E-09
  0.20316055E-09  0.15160909E-09  0.11991963E-08  0.54579969E-09  0.65598688E-09
  0.78931526E-09 -0.89258456E-09 -0.11113851E-09 -0.12211084E-09  0.49973364E-13
 -0.60890269E-09  0.16178868E-08 -0.65267524E-09  0.47270677E-09  0.65837983E-09
 -0.10561300E-08  0.73155050E-10 -0.67043136E-10  0.27273218E-10  0.15934409E-09
  0.91293381E-10 -0.23032884E-09 -0.70994721E-08 -0.74290474E-08  0.24382282E-07
  0.23072188E-09  0.11180899E-08 -0.28542287E-09 -0.12336460E-09  0.10207390E-08
  0.91726237E-09  0.58777525E-09  0.43562459E-09 -0.78815226E-10 -0.12233953E-09
 -0.32088480E-09  0.27235897E-09  0.37086523E-09  0.15771709E-08  0.31429269E-09
  0.47969055E-09  0.63905359E-09 -0.94609978E-09  0.23115474E-09  0.21957535E-09
 -0.25187899E-09  0.22539200E-09  0.14132216E-08  0.60367626E-09  0.42125522E-09
  0.43736811E-09 -0.10533795E-09 -0.97448131E-12 -0.20191824E-09 -0.23401681E-10
  0.44773766E-09  0.10853832E-08 -0.14488681E-08  0.82054748E-09  0.46382616E-09
 -0.73102122E-11 -0.36317088E-09 -0.31787404E-09  0.29192207E-10  0.34666124E-09
  0.73437463E-09 -0.35387741E-09  0.50159518E-09  0.32874781E-09 -0.22738645E-10
 -0.48573950E-10  0.29608984E-09  0.29092366E-09  0.11437553E-09  0.16335597E-08
 -0.38082124E-09  0.56364075E-09  0.70996646E-09 -0.12220873E-08 -0.10763568E-09
  0.65938438E-10  0.17179729E-09  0.73294377E-09  0.15771520E-08  0.13608225E-10
  0.96171175E-09  0.66223380E-09 -0.10368144E-08  0.50849546E-10 -0.28824502E-09
  0.53806424E-10  0.37501666E-09  0.23037319E-09  0.58202392E-09  0.85227814E-09
  0.66018456E-09 -0.17608420E-09 -0.26426892E-09 -0.22804348E-09 -0.74436836E-09
 -0.59090615E-08  0.12179383E-07 -0.45435086E-07 -0.32863404E-07 -0.17757357E-07
  0.55089144E-07 -0.25373307E-07 -0.13812864E-07  0.17937163E-07  0.52692288E-08
 -0.88880291E-08 -0.11083927E-07 -0.11996131E-07 -0.63435709E-08  0.16678026E-07
  0.61804601E-08  0.15203924E-07  0.12053395E-08 -0.16153899E-07 -0.15513870E-07
  0.12211500E-07 -0.16960271E-07 -0.92738826E-08  0.37066675E-07  0.13852354E-07
 -0.20068487E-07  0.34374615E-07 -0.29134351E-08  0.22733617E-07  0.22176986E-07
  0.18239514E-07  0.84111100E-08  0.10764775E-07 -0.67518236E-08 -0.13035815E-07
 -0.88642242E-09  0.54036180E-08 -0.14601096E-07  0.34809701E-07 -0.15012079E-07
  0.57975905E-08  0.30208292E-07 -0.61941450E-08  0.23470715E-07 -0.69590852E-09
 -0.14052154E-07 -0.59515824E-09 -0.36228846E-07  0.12613333E-07  0.17308104E-07
 -0.38152791E-07  0.33829894E-09  0.10935475E-08 -0.47240908E-08  0.13187640E-07
 -0.23847214E-07 -0.33062205E-08  0.35004885E-08  0.16758300E-07 -0.18125214E-07
 -0.39682089E-09 -0.50993805E-08 -0.17660374E-07  0.50109593E-08  0.12375211E-07
 -0.11448045E-07  0.24117872E-07 -0.14081764E-07 -0.23124919E-08  0.81806381E-08
 -0.58697279E-08  0.89945572E-08 -0.14536931E-07 -0.16966717E-07  0.49761836E-08
 -0.56452533E-09 -0.10415805E-07 -0.12730671E-07 -0.57419042E-08 -0.13921337E-08
  0.44739713E-08  0.21480874E-07  0.15494665E-07 -0.16706233E-07 -0.31525433E-07
 -0.20523274E-07  0.51829208E-07 -0.33596949E-08  0.56845734E-08  0.38420951E-09

 -0.36554794E-11 -0.23934794E-08 -0.61666336E-10  0.55956996E-09  0.94357115E-10
 -0.28723362E-09  0.16513910E-10  0.89662843E-11  0.20373348E-09 -0.41285599E-09
 -0.98307202E-09  0.18694756E-09 -0.67934669E-09  0.45655067E-09  0.43897155E-10
 -0.68911980E-11  0.18059888E-09  0.50011590E-09 -0.16905172E-08 -0.20489963E-08
 -0.31798535E-09 -0.46829035E-09 -0.51298725E-09  0.20984166E-09  0.15462120E-09
  0.67016560E-10  0.13451735E-09 -0.23937708E-09 -0.26120980E-08 -0.32874971E-09
 -0.13180733E-09 -0.58698920E-09  0.18691547E-09  0.33949200E-09 -0.13327696E-09
  0.67153858E-11  0.52693602E-09 -0.26128392E-08 -0.25872746E-09 -0.49867971E-09
  0.40098178E-09  0.35591238E-09  0.76637827E-09 -0.15577307E-09 -0.44313452E-09
 -0.14810735E-08 -0.25819983E-08 -0.48125326E-10 -0.16700394E-09 -0.21230085E-09
 -0.16897557E-09  0.24823985E-10 -0.65016476E-10 -0.12733171E-09 -0.11146099E-08
 -0.30479885E-08 -0.20522544E-09 -0.10670765E-08 -0.60055981E-09  0.23072188E-09
  0.22448321E-07 -0.17851121E-09 -0.89338632E-09  0.37134417E-09 -0.22665586E-08
  0.46561940E-09  0.19446082E-09  0.38250750E-09  0.91765535E-10 -0.45601937E-09
  0.42250540E-11 -0.25886021E-09 -0.54717312E-11 -0.27989330E-08 -0.91845863E-10
 -0.26505709E-09  0.31822839E-09 -0.12532141E-09  0.78169698E-09 -0.85316105E-10
 -0.48353203E-10 -0.15634498E-09 -0.18874261E-08 -0.80164587E-09  0.26444763E-09
 -0.78369209E-09  0.32109585E-09 -0.71696102E-09  0.18090333E-10 -0.17213996E-09
 -0.76364866E-09 -0.31195087E-08  0.54562516E-09  0.25686533E-09 -0.12811537E-09
 -0.13987182E-09 -0.38414341E-09  0.31720808E-10  0.90630231E-10  0.10969231E-09
 -0.22963665E-08  0.19324555E-09  0.70361272E-09  0.46606632E-09 -0.57661587E-10
  0.34981877E-09 -0.22679996E-09  0.18255659E-09 -0.11476742E-09 -0.24956677E-08
 -0.15079387E-09 -0.39504244E-09  0.52176687E-09 -0.90472044E-10  0.62120138E-10
 -0.16288003E-09 -0.28386349E-09  0.17191459E-08 -0.59011984E-09  0.54279577E-10
  0.35812561E-09 -0.86090187E-09  0.83484864E-10 -0.28765690E-09 -0.46771825E-09
  0.13739629E-09  0.66809537E-09 -0.18390631E-08 -0.47401328E-10 -0.49045366E-09
 -0.18000759E-09  0.27523003E-09 -0.95630609E-09  0.16470939E-09 -0.43830359E-09
 -0.18327868E-07 -0.19314656E-07  0.18251229E-07  0.18799821E-07 -0.60172003E-08
  0.16499621E-08  0.54536026E-07 -0.17660696E-07  0.18143364E-07  0.41420228E-09
  0.61428956E-08 -0.14820546E-07 -0.12828436E-07  0.13204299E-07  0.64277638E-08
  0.93746700E-08 -0.19442952E-07 -0.11523025E-07 -0.29219744E-07 -0.62962973E-08
 -0.22304867E-07 -0.23752403E-07 -0.11441355E-07  0.34832354E-08  0.16271075E-07
 -0.88778067E-08  0.36479841E-08 -0.51817027E-08 -0.13777949E-07  0.23259180E-07
  0.33466388E-08  0.22094132E-07 -0.10002887E-07 -0.85165288E-08 -0.13517716E-07
  0.81198573E-08 -0.17115881E-07  0.29620014E-07 -0.48787512E-08 -0.16612557E-08
  0.28887947E-07  0.13812268E-07  0.14717360E-08  0.18834251E-07 -0.80440575E-08
 -0.25324277E-07 -0.10940408E-07 -0.17950040E-09  0.23146719E-07  0.27717211E-07
 -0.12382166E-07  0.42106143E-07  0.17666585E-08  0.52316523E-08  0.79666959E-08
  0.42805037E-08 -0.92379648E-08  0.21271361E-07  0.30187376E-08 -0.47132714E-08
 -0.38848916E-07 -0.20298523E-07 -0.22315690E-08 -0.42827489E-07  0.92706270E-08
 -0.42971691E-08  0.19175830E-07 -0.24119074E-08 -0.23339125E-08  0.16981953E-07
 -0.20308310E-09 -0.11658848E-07 -0.65776116E-08  0.13563506E-07  0.11521201E-07
 -0.32756545E-07 -0.16456537E-07  0.63658318E-08  0.39542169E-07 -0.15507833E-07
  0.11821569E-07  0.15051163E-07  0.21025879E-07 -0.37391415E-08  0.39223582E-08
 -0.32688375E-07 -0.40970338E-08  0.31396136E-08 -0.21188326E-07  0.95620845E-08

 -0.41474366E-09 -0.13752269E-08 -0.21939284E-09 -0.44186841E-09 -0.12032152E-09
  0.29588492E-09  0.21421452E-10 -0.88271238E-09  0.30002118E-10  0.37200910E-09
 -0.12031067E-08  0.28311461E-10 -0.21158162E-10  0.25008708E-09  0.52535250E-10
  0.11941493E-10  0.12229052E-09  0.91149687E-10  0.19953897E-09 -0.13656866E-08
  0.82776357E-10 -0.28698137E-09 -0.74083604E-10  0.13818551E-10  0.57148245E-09
 -0.72328628E-09 -0.82999591E-10  0.60490791E-09 -0.16143848E-08  0.31681823E-09
 -0.63186177E-11  0.16893016E-09 -0.24035783E-09 -0.93051061E-10 -0.71520376E-09
 -0.57493078E-10  0.38397102E-10 -0.21112556E-09  0.40693634E-09  0.38474410E-09
  0.17345087E-09 -0.28375835E-10  0.95277904E-10 -0.43837079E-09 -0.41908082E-09
 -0.11732896E-08 -0.12359827E-08 -0.75800011E-09 -0.99061361E-10 -0.56727215E-11
 -0.27833881E-10  0.19714561E-09 -0.10443293E-08  0.42056797E-09 -0.35072248E-09
 -0.16054471E-08 -0.68472333E-09 -0.20238516E-08 -0.59467385E-09  0.11180899E-08
 -0.17851121E-09  0.17560212E-07 -0.41405503E-09  0.10573185E-08 -0.71781295E-09
 -0.54735340E-10 -0.32485641E-10  0.10251560E-10 -0.29739573E-09 -0.67148287E-11
 -0.54759938E-09  0.33411926E-10 -0.86945524E-09 -0.34365977E-09  0.56153139E-09
  0.55215776E-09  0.25915937E-09  0.24947806E-09 -0.42257336E-10 -0.49373691E-09
 -0.25964724E-09  0.20846213E-08 -0.11900120E-08  0.20839257E-09 -0.49746386E-09
  0.24345979E-09 -0.25210400E-09 -0.10807094E-09 -0.46357099E-09 -0.25746894E-10
  0.14579752E-09 -0.90058255E-09 -0.87523500E-09  0.27411183E-09  0.78888904E-11
 -0.19288612E-09  0.23719286E-09 -0.43890458E-09 -0.48050863E-09 -0.11004110E-08
 -0.10870487E-08 -0.12536801E-09  0.99165781E-10 -0.30731487E-09  0.44354020E-09
  0.82054876E-10 -0.90374696E-10  0.55533893E-09  0.39220204E-09 -0.10522151E-08
  0.27929442E-09  0.18151740E-09  0.23539266E-11  0.40538863E-10 -0.12616768E-09
 -0.11252751E-08  0.31462983E-09  0.12378400E-08 -0.17638931E-08  0.55004211E-09
  0.29954783E-09  0.11854879E-09 -0.18375678E-09  0.20333634E-10 -0.43035849E-09
  0.42554163E-11  0.33320943E-09 -0.85944323E-09  0.40583754E-09  0.10248434E-09
  0.85533754E-10 -0.12985463E-09  0.15212007E-10 -0.46455969E-09  0.38936160E-11
 -0.10170157E-07  0.14302713E-07 -0.17550408E-07 -0.18719141E-08  0.70394739E-08
 -0.15377403E-07  0.83642889E-08  0.12688491E-07 -0.15240747E-07  0.16058642E-08
 -0.11621089E-07  0.13878141E-07 -0.28488295E-07 -0.11832249E-07  0.96090054E-08
  0.11001072E-07  0.37887407E-08 -0.76865371E-08  0.87394920E-09 -0.81151270E-08
 -0.14745419E-08 -0.33054497E-07 -0.80151863E-08 -0.21532999E-08  0.25302532E-07
  0.13270437E-08  0.59804730E-08  0.69065059E-08  0.24967881E-08  0.55772323E-08
  0.10201862E-07  0.60133683E-08  0.13086250E-08 -0.24502978E-07  0.77775047E-08
 -0.11200234E-07  0.27674349E-07  0.17395739E-08  0.18912810E-08 -0.47295922E-08
  0.28459039E-09  0.26065179E-07 -0.25397547E-08  0.35426895E-08 -0.13035335E-07
  0.96423170E-08  0.12104431E-07 -0.11930729E-07  0.32667079E-08 -0.99119517E-08
  0.23993743E-08  0.10837780E-07 -0.34544049E-07 -0.32851388E-09  0.10701145E-07
 -0.81332807E-08  0.12528524E-07  0.34882551E-07 -0.70832745E-08  0.45899095E-08
  0.17107516E-07  0.33352140E-08  0.74025136E-08  0.15430417E-07 -0.35895198E-08
  0.14492173E-07  0.99364623E-08 -0.97879733E-08 -0.51814633E-08  0.33169175E-08
 -0.14155583E-07  0.46051921E-08 -0.14018986E-07  0.17398395E-07  0.21256727E-07
 -0.19911272E-07 -0.11635062E-07 -0.32176453E-08  0.77415616E-08  0.11547054E-07
 -0.31342685E-08 -0.36574142E-08 -0.57256486E-10  0.11653632E-07 -0.40504442E-07
 -0.68937290E-08  0.11068584E-07 -0.17859380E-07 -0.19097140E-07  0.28942560E-08

 -0.26031508E-09  0.29057950E-08  0.48518087E-09 -0.25292006E-09  0.23079524E-09
  0.30610161E-09  0.23369792E-09 -0.73110789E-10  0.19206726E-09 -0.13630140E-09
  0.33301430E-08 -0.45742566E-09  0.96991174E-10  0.26164394E-09 -0.23504932E-09
  0.54181027E-09 -0.20108619E-09 -0.11021048E-09 -0.34648297E-09  0.30099962E-08
 -0.53735656E-09 -0.16652711E-09  0.39137586E-09  0.19216393E-09  0.15080998E-09
  0.32726851E-11 -0.15541431E-09 -0.18599744E-11  0.26619350E-08  0.74787557E-09
  0.73220519E-10 -0.28455072E-09 -0.28887357E-09  0.12745319E-09  0.53425065E-10
  0.22621754E-10 -0.50669749E-09  0.23111741E-08  0.39786391E-09  0.14776409E-09
 -0.54254144E-09 -0.20919604E-09 -0.40439968E-09  0.20687611E-09  0.68836611E-09
 -0.27697368E-09  0.21738090E-08  0.77024820E-09  0.85462180E-10  0.56114850E-10
 -0.13295018E-09 -0.22723145E-09 -0.41539926E-09 -0.32268589E-10 -0.34629712E-09
  0.33795642E-08 -0.78250801E-09  0.10831848E-09 -0.34001622E-09 -0.28542287E-09
 -0.89338632E-09 -0.41405503E-09  0.18321433E-07  0.51758521E-09  0.38549491E-08
  0.56694420E-09 -0.38357815E-10 -0.22669149E-09  0.41125744E-09 -0.28177378E-09
  0.33037104E-09  0.80512579E-09  0.54864549E-10  0.15236483E-08  0.68259271E-09
  0.70141455E-10 -0.12861267E-09 -0.39131330E-10 -0.25922856E-10 -0.22571203E-09
  0.45330055E-09 -0.82463701E-09  0.38280306E-08 -0.52864683E-09  0.56293836E-10
  0.22137821E-09 -0.30635095E-09 -0.33259960E-10  0.26607248E-09  0.15665657E-09
  0.38525227E-09  0.92309634E-09  0.10076729E-09 -0.31450835E-09  0.62917953E-09
  0.25362583E-09  0.58604161E-10 -0.24310029E-09  0.25681474E-09  0.30497530E-09
  0.16818965E-08 -0.29951420E-10 -0.18373277E-09  0.18978308E-09 -0.21351738E-09
  0.18087669E-09  0.37361001E-09  0.75259476E-09 -0.21158159E-09  0.20376547E-08
  0.60461875E-09  0.12679457E-09 -0.22054956E-09 -0.20712306E-09 -0.34015820E-09
  0.25969028E-10 -0.42024023E-09 -0.16254568E-09  0.39728566E-08  0.13762786E-08
  0.19623130E-11 -0.73845940E-09 -0.47477672E-09  0.22035205E-09 -0.19082198E-09
  0.73704347E-10  0.81818290E-10  0.36037270E-08 -0.61178223E-09  0.34877767E-09
  0.25511256E-09 -0.65207387E-09 -0.57371347E-09 -0.12755733E-10  0.48530541E-09
  0.10883814E-07 -0.27477526E-07 -0.64061905E-08 -0.79335669E-08 -0.10386732E-07
 -0.78745499E-09  0.64903571E-08  0.21489131E-07  0.31287082E-07 -0.46842491E-09
 -0.21192426E-07  0.29368034E-08 -0.43903933E-08 -0.62017106E-08  0.77808003E-08
 -0.13122698E-07  0.13385293E-07  0.20682673E-07 -0.13128807E-07 -0.20817241E-07
 -0.11939422E-07 -0.14054151E-07  0.21230932E-07  0.19140493E-07 -0.64852550E-08
  0.19511667E-08 -0.79066671E-09  0.19036588E-07 -0.20483018E-08  0.31271601E-08
  0.13329991E-07 -0.32345704E-07 -0.25622716E-07  0.59986587E-08  0.24168589E-08
 -0.11450078E-07 -0.64478702E-08 -0.95044813E-08 -0.12455657E-07  0.22150820E-07
  0.63472400E-08 -0.53521979E-08 -0.15387245E-07  0.13691410E-07  0.13498962E-07
  0.82106978E-08  0.27189460E-07 -0.26851965E-08 -0.57115359E-08  0.90331063E-08
  0.70227619E-08  0.10754247E-07  0.23437633E-08  0.19475639E-07  0.20704271E-08
  0.17138638E-08  0.71860618E-08 -0.36874895E-08 -0.22612796E-07 -0.34880100E-08
  0.20649096E-08 -0.48267064E-08 -0.85305108E-08 -0.60718069E-08  0.33761503E-07
  0.18751266E-07 -0.82380894E-08  0.22720828E-07 -0.30543307E-08  0.26357231E-08
  0.80395242E-08  0.44789016E-08  0.11902007E-07 -0.17191052E-07 -0.19445277E-07
  0.64935025E-09  0.30560671E-08 -0.92718251E-08  0.69125749E-08  0.10816047E-07
 -0.94454889E-08 -0.75188534E-08 -0.56320737E-08  0.27483368E-07  0.53089018E-08
 -0.54534451E-07 -0.13856843E-07  0.42370283E-08 -0.17567393E-07 -0.59300818E-08

  0.15205608E-08  0.32989973E-08 -0.11668399E-09 -0.13531775E-08 -0.28480755E-09
 -0.12633179E-09  0.12623115E-08 -0.50210568E-10 -0.30728358E-09 -0.95286865E-09
  0.20670577E-08 -0.99555021E-09  0.39812737E-09 -0.18756471E-09  0.44061735E-10
 -0.37886247E-09  0.48990138E-09  0.19721981E-10  0.19143033E-08  0.45545835E-08
  0.19492145E-08  0.13629135E-08 -0.10479577E-08  0.47451931E-09 -0.70113146E-10
  0.20548365E-09  0.19035441E-10  0.35822160E-08  0.27211503E-08 -0.18515970E-09
  0.11004911E-08 -0.28081698E-09 -0.40667606E-09  0.93750683E-09 -0.84390736E-09
  0.22794704E-09  0.43121090E-08  0.46396207E-08 -0.62117941E-10  0.13525732E-08
 -0.57793517E-09  0.20830350E-09 -0.60792484E-09 -0.11938947E-08 -0.27540219E-09
 -0.11148447E-09  0.41304373E-08  0.35587942E-08  0.10411168E-08 -0.48395120E-09
 -0.56459197E-09  0.25204080E-10 -0.74924748E-09 -0.27576460E-09  0.12524661E-08
  0.13861165E-08 -0.15286790E-08 -0.12843860E-09  0.48436942E-09 -0.12336460E-09
  0.37134417E-09  0.10573185E-08  0.51758521E-09  0.10262214E-06  0.21811809E-08
 -0.68524474E-10 -0.10555578E-08  0.72588711E-10  0.33613754E-09  0.14885378E-08
  0.85961269E-09 -0.22682509E-09  0.71669164E-08  0.21765962E-08 -0.85863523E-09
  0.11461420E-08  0.15564932E-09  0.10382350E-09  0.51306695E-10  0.13590351E-09
 -0.22632118E-09 -0.34411260E-08  0.46163881E-08 -0.62038188E-09 -0.21328967E-08
  0.14824672E-09  0.26607129E-09 -0.24673039E-09 -0.12322648E-09 -0.40558879E-10
 -0.46410593E-08  0.35510909E-08  0.82473255E-09 -0.11329111E-08  0.12194055E-08
 -0.28381561E-09  0.18659336E-09 -0.59981078E-09 -0.84633428E-09  0.11563540E-08
  0.31857629E-08  0.41604332E-10  0.16179055E-09  0.26515039E-09 -0.19389319E-09
  0.32706034E-09  0.57187099E-09  0.46170064E-09 -0.38938989E-08  0.34067326E-08
  0.12905342E-08  0.37917893E-09  0.11917383E-08 -0.63016904E-09 -0.11490316E-08
  0.21678673E-09 -0.26225910E-09 -0.18210111E-08  0.40367522E-08 -0.89612307E-09
 -0.14041452E-08  0.42236867E-09  0.17787562E-09 -0.45675007E-09  0.11051719E-10
 -0.58255071E-10  0.30878730E-08  0.44970477E-08  0.73753423E-09  0.13642287E-08
 -0.97026879E-09 -0.21199851E-09 -0.52782624E-09  0.51804448E-09  0.45338939E-09
  0.10313326E-06 -0.55036130E-07 -0.27454523E-07 -0.23766620E-07  0.81000630E-07
 -0.81935681E-07  0.14213618E-06 -0.15367271E-06  0.32237611E-07 -0.31284782E-07
  0.22522413E-07 -0.27259859E-07 -0.12307112E-06 -0.28113654E-07  0.11840427E-07
  0.48466718E-07 -0.46799652E-07 -0.20533200E-07 -0.13101735E-06  0.10201208E-07
  0.15258080E-07  0.64025561E-08 -0.12873739E-07 -0.99351674E-08  0.11956500E-06
 -0.34367778E-07  0.33690991E-07  0.76348789E-07 -0.11391063E-07  0.43195538E-07
  0.50740279E-07  0.30490560E-07 -0.33804715E-07  0.77521426E-08  0.67242229E-07
  0.26275528E-07  0.90379331E-07  0.43666339E-07 -0.14614035E-07  0.72824626E-07
 -0.70894963E-07 -0.41393297E-08  0.45111738E-07 -0.96028959E-07  0.22672522E-07
 -0.15599420E-06 -0.88323059E-07 -0.14358453E-07  0.14056665E-06 -0.59046679E-07
 -0.31081732E-07  0.45249947E-07  0.40007731E-08  0.71918732E-08  0.10581234E-06
  0.81693861E-09 -0.47455881E-07 -0.18835834E-07 -0.31778617E-07  0.34061177E-07
 -0.73261604E-08 -0.69961725E-07 -0.11944342E-07  0.86618144E-07 -0.24021758E-07
  0.16777265E-08  0.16030176E-07  0.33933516E-07 -0.56968894E-08  0.78197558E-07
 -0.35438226E-07 -0.45661605E-07  0.17264240E-07  0.43586392E-07  0.94323719E-07
  0.10816557E-06 -0.31058101E-07  0.75335204E-07  0.32441739E-07 -0.19914171E-07
  0.54486814E-07  0.29862180E-07  0.75292042E-08 -0.46391805E-07 -0.98162644E-07
 -0.67548942E-07  0.26044814E-07 -0.95429102E-08 -0.14858735E-07  0.21854725E-07

  0.16816272E-08  0.21928250E-05 -0.22211361E-08  0.45554870E-08  0.25327366E-08
  0.39017997E-08 -0.59299414E-08 -0.13753193E-08 -0.29662014E-08  0.18831622E-08
  0.21780067E-05 -0.59167986E-08  0.26463464E-08 -0.92451322E-08  0.29705430E-08
 -0.45480230E-08  0.16615504E-08  0.15282561E-08 -0.22381637E-08  0.21966386E-05
  0.63836491E-08  0.93784180E-09  0.10746320E-07 -0.29008129E-09  0.38466010E-08
  0.45529693E-09  0.62595092E-09  0.55650972E-08  0.21760973E-05  0.31744565E-08
  0.60046220E-09  0.31381941E-08  0.30573796E-09  0.42204960E-08  0.23163352E-08
  0.67337178E-09 -0.39926453E-08  0.21728288E-05  0.85505376E-08  0.16214723E-08
 -0.31170821E-08  0.11814298E-08 -0.13967541E-08  0.24545047E-08 -0.20835084E-09
 -0.13585636E-08  0.21636478E-05  0.89999485E-10  0.22901554E-08  0.15131821E-08
  0.11133180E-08 -0.24661509E-09 -0.31835711E-08  0.41024927E-08  0.85523417E-08
  0.21471281E-05 -0.22899364E-08 -0.10817939E-08  0.21266102E-08  0.10207390E-08
 -0.22665586E-08 -0.71781295E-09  0.38549491E-08  0.21811809E-08  0.22822609E-05
  0.67675550E-08 -0.53208420E-08  0.93553362E-08 -0.63628752E-11 -0.16446809E-08
 -0.45521714E-09 -0.16917519E-09 -0.11457817E-07  0.21590199E-05 -0.12092891E-07
  0.52478420E-08 -0.50877696E-08  0.49675677E-09 -0.10335625E-08 -0.73166527E-09
  0.12747720E-08  0.96536094E-08  0.21700233E-05 -0.49378148E-08  0.77616871E-08
 -0.21343035E-08 -0.18242481E-08  0.52837379E-08  0.43893074E-09 -0.12674643E-08
 -0.24022508E-08  0.22019987E-05  0.12525658E-07 -0.14547047E-08 -0.77046134E-10
  0.35171498E-08 -0.15187264E-08  0.34619252E-09 -0.13323429E-08  0.16033223E-07
  0.21737164E-05  0.47129845E-10 -0.23469809E-08  0.94817934E-08  0.10017378E-08
  0.30560597E-09 -0.26499691E-08  0.30733958E-08  0.48242209E-09  0.21714212E-05
  0.87652425E-10  0.54891180E-08 -0.92068959E-08  0.32158564E-09 -0.33656274E-08
  0.14486567E-08 -0.33428494E-08  0.26699224E-08  0.21854309E-05 -0.33713278E-08
  0.37113003E-08  0.19847496E-08  0.16754829E-08 -0.10775770E-08 -0.21530404E-08
  0.26011627E-08  0.32895352E-08  0.21800576E-05 -0.69204695E-08  0.33687184E-08
 -0.46683778E-08  0.30042453E-08 -0.39008169E-09 -0.77382449E-09 -0.42502113E-08
 -0.54293970E-06 -0.96375895E-05  0.15549691E-05  0.20296481E-07  0.16381428E-05
 -0.71439802E-07  0.14378130E-06  0.83330845E-08  0.64358102E-07  0.15824484E-05
 -0.21315938E-05 -0.48455282E-06  0.19136738E-06 -0.16615022E-06  0.13564242E-06
  0.61134848E-06 -0.38565690E-06 -0.85554673E-07  0.18786241E-05 -0.33912737E-05
 -0.26326297E-06  0.58281661E-06 -0.70349544E-06  0.15131598E-07  0.24343598E-07
  0.71074267E-06 -0.12683299E-05  0.47254318E-06 -0.76671538E-06  0.55516130E-07
 -0.78044708E-07 -0.48190604E-06  0.13007459E-06 -0.11233907E-06  0.38239699E-06
 -0.35357509E-06  0.13813069E-05 -0.33615749E-05 -0.85180842E-07 -0.54352576E-06
  0.26366472E-06  0.45357632E-06 -0.46934099E-06 -0.40410322E-06 -0.37183857E-06
  0.18682502E-06 -0.25244567E-05  0.49846673E-06  0.24340660E-06 -0.10123162E-05
  0.32611489E-06  0.85598711E-06 -0.21328738E-06  0.40083945E-06  0.18701036E-05
 -0.37113235E-05  0.51368681E-06  0.15939448E-06 -0.10381174E-05  0.64771904E-06
 -0.12436529E-06  0.18280653E-06  0.49561609E-06  0.11478232E-05 -0.24125616E-05
 -0.39299707E-06 -0.21010671E-06 -0.59019739E-06 -0.25685316E-07  0.34166221E-07
  0.17333294E-06 -0.50470752E-06  0.90320844E-06 -0.31117421E-05 -0.61417479E-06
 -0.34517414E-06  0.17650644E-06  0.67317117E-06  0.50937152E-06 -0.39295387E-06
  0.88121205E-07  0.92007591E-07 -0.17022701E-05  0.41632315E-06 -0.45138320E-07
  0.54878152E-06  0.27938015E-06 -0.68412165E-06  0.81672749E-06 -0.10650359E-05

  0.30947143E-09  0.67680004E-08 -0.34118058E-09 -0.49217932E-10 -0.52527516E-09
 -0.13925607E-09 -0.27843615E-09 -0.90146832E-09  0.13559144E-08 -0.15050147E-08
  0.76079420E-08  0.95263077E-09 -0.26641029E-09 -0.92892218E-09  0.11180081E-08
  0.42144290E-10  0.16877503E-09  0.78447642E-09  0.23756170E-08  0.92137797E-08
  0.54860818E-09  0.48776507E-09  0.19166033E-10 -0.14709295E-08 -0.14477489E-09
  0.52681235E-09  0.13603944E-09 -0.69664230E-10  0.61232469E-08 -0.19080089E-09
 -0.78576243E-09 -0.33243926E-10  0.26269369E-10  0.41076114E-09 -0.35896124E-09
  0.13982141E-08  0.18384113E-09  0.73921481E-08  0.23486347E-08 -0.70009758E-09
  0.36000724E-09 -0.71710042E-09 -0.28533320E-09  0.59485803E-10  0.34404448E-09
  0.27355217E-08  0.94579858E-08 -0.75451657E-09 -0.88277270E-09 -0.33499015E-09
  0.76937467E-09 -0.33303837E-09 -0.35440545E-09 -0.25495087E-09 -0.19851604E-08
  0.51693898E-08 -0.21176445E-08  0.12415993E-09  0.66186388E-10  0.91726237E-09
  0.46561940E-09 -0.54735340E-10  0.56694420E-09 -0.68524474E-10  0.67675550E-08
  0.85290999E-07  0.48521642E-09 -0.50646565E-09  0.19757319E-10 -0.23392749E-09
 -0.27206410E-09  0.12011438E-08 -0.29961093E-09  0.56740470E-08  0.50649178E-08
 -0.23483318E-09  0.60786740E-09  0.54094067E-09 -0.27312505E-09  0.44543068E-09
 -0.28814406E-09 -0.94914239E-10  0.80572113E-08 -0.22649296E-08 -0.36632525E-09
 -0.67930911E-10  0.37517564E-09 -0.58868419E-10 -0.38761551E-09  0.13333433E-09
  0.69327076E-09  0.82696784E-08 -0.24204578E-08 -0.36966087E-09  0.33698966E-09
 -0.92181108E-10 -0.82839686E-09 -0.24772954E-09 -0.79026661E-09  0.58048536E-09
  0.58675973E-08  0.59587581E-09  0.59183534E-09 -0.90144764E-09  0.44680046E-09
  0.17173485E-09 -0.32363408E-09  0.75513195E-09  0.14630121E-08  0.68006284E-08
 -0.78566239E-11 -0.31635113E-09  0.12108300E-09 -0.45729990E-10 -0.42764081E-09
 -0.24613241E-09 -0.39239562E-09 -0.94535022E-09  0.76736759E-08  0.53791680E-08
 -0.22314184E-09  0.49897221E-09 -0.51444704E-09 -0.16399468E-09 -0.60232503E-09
  0.52295314E-09  0.13250802E-08  0.79517809E-08 -0.15934912E-08  0.24696018E-09
 -0.28971007E-09 -0.66434722E-10  0.35475921E-09 -0.56133365E-10 -0.85037270E-10
 -0.86771654E-07 -0.87009711E-07  0.55209618E-07 -0.89111106E-08  0.62143142E-07
 -0.14963637E-06  0.92110724E-07 -0.93758798E-07  0.28449245E-07 -0.17466200E-07
 -0.18325885E-07 -0.33307861E-07 -0.21714715E-07  0.85452988E-07 -0.81638466E-08
 -0.54170949E-07 -0.44675330E-07 -0.23209356E-07  0.23741101E-07  0.26024695E-08
  0.16869625E-07 -0.14511837E-07  0.56526213E-07 -0.81264562E-07  0.10480270E-07
 -0.36464022E-07  0.13574008E-06  0.41053092E-07 -0.52349336E-07 -0.57706326E-07
  0.64142789E-07  0.93446029E-08 -0.45409211E-07  0.19177520E-07  0.71867295E-08
 -0.36988076E-07 -0.75277310E-08  0.23541636E-07  0.45076667E-07 -0.12202165E-06
  0.40638632E-09  0.11319447E-06  0.50134192E-07 -0.96698046E-08  0.21679149E-07
 -0.17698887E-07 -0.51543821E-07 -0.13805605E-07  0.11020306E-07 -0.57849487E-07
  0.30617463E-07  0.35279727E-09 -0.31502580E-07 -0.38118034E-07  0.70794676E-08
 -0.26964294E-07  0.38614342E-08 -0.94015679E-07  0.47093634E-07  0.11842250E-06
 -0.87166838E-08  0.67440110E-07 -0.25475976E-07  0.29762804E-07 -0.15490797E-07
 -0.37099996E-07  0.39983842E-07  0.30781671E-07 -0.96724769E-07 -0.54952180E-07
  0.36989444E-07 -0.32673417E-07  0.32399887E-07  0.88096422E-07 -0.69693799E-07
  0.71069609E-08 -0.46452852E-07 -0.85320578E-07  0.68937761E-07  0.10920701E-06
  0.38174887E-08 -0.52506511E-07  0.28648648E-07  0.35232824E-07 -0.48017265E-07
  0.32625199E-07  0.11502972E-06  0.17972865E-07  0.25696042E-07 -0.39672123E-07

 -0.15518833E-09 -0.55078414E-08  0.34186213E-09 -0.47098900E-09  0.73883733E-09
  0.63622195E-09 -0.57533861E-09 -0.17084470E-09  0.58501657E-10 -0.19144169E-08
 -0.42808703E-08  0.27043654E-09 -0.19353231E-08  0.11681140E-08  0.10001427E-08
  0.58170104E-09  0.29767926E-09  0.11825813E-09  0.75503054E-09 -0.49381305E-08
 -0.57916775E-10  0.82188440E-09  0.51496328E-09  0.20631399E-09 -0.22429009E-09
  0.33394527E-09  0.94906640E-12 -0.56613206E-09 -0.56295208E-08  0.12572229E-09
 -0.14739097E-08  0.77470896E-09  0.77778907E-09  0.29513503E-09  0.76711292E-09
  0.12074792E-09 -0.29265527E-08 -0.58851385E-08  0.27921979E-09 -0.12452057E-08
  0.12361458E-08  0.48485571E-09 -0.59674510E-10  0.76356152E-10 -0.11859148E-09
 -0.13490622E-08 -0.48084182E-08  0.64692933E-10 -0.11260062E-08  0.37093138E-09
  0.97277798E-09 -0.12468385E-09  0.87498252E-09 -0.31777016E-09 -0.10716960E-08
 -0.40623018E-08 -0.28286055E-09 -0.10026822E-08  0.68851964E-09  0.58777525E-09
  0.19446082E-09 -0.32485641E-10 -0.38357815E-10 -0.10555578E-08 -0.53208420E-08
  0.48521642E-09  0.36461966E-07 -0.88354967E-08 -0.74668475E-08 -0.44969599E-09
 -0.20898421E-08 -0.99457980E-11 -0.30892308E-09 -0.53807882E-08 -0.17343483E-10
 -0.13224392E-09  0.68558252E-09  0.65223575E-09 -0.59055849E-09 -0.19254288E-09
 -0.20120941E-09 -0.22290843E-08 -0.53448133E-08 -0.63171222E-09 -0.70589523E-09
  0.84528317E-09  0.66875760E-09 -0.83128210E-09 -0.13148861E-11  0.17110963E-09
  0.28948068E-08 -0.51826876E-08 -0.25225383E-09  0.79521450E-09  0.14346051E-09
  0.58100911E-09  0.36011150E-10 -0.15241950E-09  0.35043229E-10 -0.20812568E-08
 -0.54342748E-08 -0.11413627E-09 -0.14827600E-08  0.89412616E-09  0.11214070E-08
 -0.42437767E-09  0.34445348E-09 -0.32927738E-10 -0.95308918E-09 -0.51332283E-08
 -0.21474527E-09 -0.21249212E-08  0.60491043E-09  0.10250476E-08  0.60185684E-09
  0.27058789E-09  0.19421047E-09  0.11987549E-08 -0.63061798E-08  0.47830574E-09
 -0.15759887E-08  0.99943873E-09  0.49939501E-09 -0.44300180E-09 -0.10945577E-08
 -0.25818282E-10 -0.14959199E-08 -0.60034287E-08  0.24042324E-09 -0.19710639E-09
  0.71681979E-09  0.97698755E-09  0.45821256E-09  0.17964771E-09  0.26136245E-09
 -0.10520288E-08  0.55800872E-07 -0.48799744E-07 -0.49678257E-07 -0.10793633E-07
 -0.15396337E-08  0.60794134E-08 -0.39083111E-08 -0.98742795E-10 -0.59085044E-07
  0.47531632E-08  0.20378203E-07 -0.66639630E-07  0.20446250E-07 -0.32770181E-08
  0.32711511E-07  0.74374117E-08  0.44259718E-08 -0.65032273E-07  0.30950613E-07
  0.18174106E-07 -0.24023468E-07  0.17894911E-07  0.24559049E-08 -0.98680651E-08
  0.18583662E-07 -0.14819568E-07  0.33385391E-07 -0.24007478E-07 -0.62410194E-09
  0.47154613E-07 -0.86139236E-08  0.51277233E-09 -0.20263800E-07 -0.20311645E-07
 -0.86786567E-08  0.45072315E-07  0.37630569E-08 -0.11574289E-07 -0.28936810E-07
  0.14409569E-07  0.12755977E-07  0.41753853E-07  0.96158146E-08 -0.23318540E-08
  0.63423083E-07  0.73984707E-08  0.12676522E-08  0.41646202E-07  0.34039402E-08
 -0.10139392E-07 -0.15794531E-07 -0.25717764E-07 -0.92603744E-08 -0.78451325E-08
  0.49646116E-08 -0.11763334E-07  0.36421335E-07  0.23002490E-07 -0.34451201E-07
  0.18173286E-07 -0.42785264E-07  0.75446500E-09 -0.27496702E-07  0.85108829E-08
  0.30288206E-08 -0.57344970E-07 -0.27879845E-08  0.23234274E-07 -0.57399497E-07
 -0.16406940E-07  0.21954349E-07 -0.47320564E-07 -0.73183310E-08 -0.36895357E-07
 -0.11367864E-06  0.19307125E-07  0.25999298E-07  0.27075745E-07  0.22913082E-08
 -0.15997438E-07  0.87077323E-07 -0.55973969E-08  0.21848974E-07 -0.14936404E-07
 -0.14083571E-07 -0.79712891E-08  0.17973376E-07 -0.29685001E-07  0.11512113E-07

 -0.38122169E-09  0.10990283E-07 -0.41669476E-09  0.86350895E-09 -0.90643633E-09
  0.84260715E-09 -0.39752055E-09 -0.76748016E-10 -0.40463201E-10 -0.96375181E-11
  0.83625977E-08 -0.89651359E-10  0.98089525E-09 -0.84561571E-09  0.50868402E-09
 -0.20343665E-09 -0.16431864E-10  0.73179723E-10  0.58258279E-09  0.10182918E-07
  0.69503290E-09  0.40258394E-09 -0.12560926E-08  0.70163797E-09  0.45064494E-09
  0.33277509E-11  0.14147034E-09 -0.10605516E-09  0.65003879E-08 -0.96920473E-09
  0.77695419E-09 -0.77767512E-09  0.97803784E-09 -0.31678340E-09 -0.34215284E-09
  0.25940455E-09 -0.49346777E-09  0.88420616E-08  0.37947423E-09  0.11295620E-08
 -0.26667055E-08  0.12050207E-08 -0.41837728E-09  0.92866485E-10  0.16456601E-09
 -0.36450579E-09  0.82545893E-08  0.42676358E-09  0.37513888E-09 -0.77604762E-09
  0.61109583E-09 -0.26430132E-10 -0.14698870E-09  0.30129895E-09 -0.32952434E-09
  0.86946973E-08 -0.33361875E-09  0.62798511E-09 -0.16658327E-08  0.43562459E-09
  0.38250750E-09  0.10251560E-10 -0.22669149E-09  0.72588711E-10  0.93553362E-08
 -0.50646565E-09 -0.88354967E-08  0.35695173E-07 -0.76687119E-08 -0.29744185E-09
 -0.50497058E-09 -0.18594340E-09 -0.64537899E-09  0.68261505E-08 -0.62751167E-09
  0.53924414E-09 -0.95443512E-09  0.68450696E-09 -0.13964785E-09 -0.13849026E-09
 -0.58047887E-09 -0.17009687E-09  0.10881748E-07  0.46750764E-09  0.56671705E-09
 -0.14652325E-08  0.53656600E-09 -0.10874783E-09 -0.85811263E-10 -0.10484249E-09
  0.83668013E-09  0.84320032E-08  0.48189045E-09 -0.75245956E-10 -0.84426589E-09
  0.82995432E-09  0.32753316E-09  0.20913300E-09 -0.32041201E-09 -0.46865231E-09
  0.79766402E-08  0.19826424E-09  0.10372463E-08 -0.16683905E-08  0.61419820E-09
 -0.82573149E-09  0.27459500E-09 -0.17571704E-09 -0.69652321E-10  0.92910455E-08
 -0.52484365E-09  0.81685049E-09 -0.16019767E-08  0.80709918E-09 -0.52865341E-09
  0.11798931E-09 -0.34610612E-09 -0.64071920E-10  0.10109939E-07 -0.28642317E-09
  0.10740788E-08 -0.23041905E-08  0.91171476E-09 -0.82762435E-11  0.34018457E-09
  0.25063481E-09  0.32532785E-09  0.10579418E-07 -0.68743606E-09  0.84103675E-09
 -0.40802102E-09 -0.63203461E-11 -0.75237276E-09 -0.98561495E-10  0.26528820E-10
 -0.13154383E-07  0.18093122E-07  0.20202062E-07 -0.71700308E-09  0.16632707E-07
 -0.16897568E-07  0.36116530E-07 -0.55146838E-08 -0.12216668E-07  0.18019245E-07
 -0.54610723E-07 -0.90202860E-08  0.92515882E-08 -0.42275493E-08 -0.26713044E-08
  0.27834945E-07  0.11457421E-07 -0.14433962E-07  0.14688586E-07 -0.61518688E-08
 -0.82264237E-08  0.30545939E-07 -0.49500123E-07  0.15839864E-07 -0.12744816E-07
 -0.46625284E-08 -0.12073801E-07  0.69077217E-08 -0.30584035E-07  0.13061434E-07
  0.29638391E-08  0.21652104E-07 -0.60388716E-08 -0.61501198E-08  0.46703534E-09
 -0.19072950E-07  0.52243686E-08  0.84415445E-08  0.13546362E-07  0.37206744E-07
 -0.43003041E-07  0.15458449E-07 -0.30353687E-07 -0.19463809E-07 -0.14399294E-07
 -0.34600474E-08 -0.31825731E-07  0.23015980E-07  0.14494702E-07  0.24846268E-07
 -0.20610505E-07  0.10506898E-07 -0.36591488E-08  0.15224116E-07 -0.46553703E-08
 -0.32382048E-07 -0.99837962E-08  0.17811673E-07  0.12108659E-07 -0.18846710E-07
 -0.25862015E-07 -0.53541975E-08 -0.17160342E-07  0.83047825E-10 -0.10229606E-08
  0.25214981E-07 -0.15797361E-07 -0.32046595E-07  0.21567081E-08  0.32969816E-08
 -0.48423400E-08 -0.60274543E-07  0.98577895E-08  0.98940396E-08 -0.90767476E-08
  0.29648117E-07 -0.41364411E-07  0.45591133E-08  0.16583246E-07  0.30302205E-08
  0.21235816E-07  0.75898501E-08 -0.15131156E-07  0.76393480E-08 -0.11990616E-07
  0.60130945E-07  0.92982627E-08  0.98283270E-08 -0.89631276E-08  0.52895750E-08

  0.58518897E-09  0.83999418E-09 -0.37729919E-09  0.48673677E-09  0.73439967E-09
 -0.10570397E-08  0.19665709E-09 -0.23767566E-09  0.12604587E-09  0.72467162E-09
  0.96372038E-09 -0.10769008E-08  0.11240997E-08  0.63358876E-09 -0.73203187E-09
 -0.14689652E-09 -0.32659523E-10 -0.21015337E-10  0.14286305E-10  0.77048662E-09
  0.56044454E-09  0.32040135E-09  0.76006354E-09 -0.66155911E-09  0.21522944E-09
 -0.35623554E-10 -0.29359287E-09  0.44418156E-09  0.11506487E-08  0.11967745E-08
  0.76320891E-09  0.96876624E-09 -0.10099126E-08  0.33163170E-10  0.78190881E-09
  0.19520090E-09  0.39016929E-09  0.69132857E-09 -0.28210432E-09  0.58178129E-09
  0.10998705E-08 -0.16425943E-08 -0.90733512E-10 -0.44177359E-09  0.30308233E-09
  0.40605512E-09  0.81039899E-09 -0.62242134E-09  0.93500501E-09  0.59649711E-09
 -0.64654877E-09  0.32184846E-10 -0.48228599E-09  0.18737287E-09  0.10320047E-08
  0.40205749E-09  0.34610012E-09  0.56730078E-09  0.41538759E-09 -0.78815226E-10
  0.91765535E-10 -0.29739573E-09  0.41125744E-09  0.33613754E-09 -0.63628752E-11
  0.19757319E-10 -0.74668475E-08 -0.76687119E-08  0.25384434E-07  0.10313525E-09
  0.16668636E-08 -0.62089795E-10  0.53552037E-09  0.19359073E-08  0.13384597E-09
  0.64904826E-09  0.62149784E-09 -0.16542707E-08  0.37616516E-09  0.38768761E-09
  0.41295543E-09  0.85181492E-09  0.15238306E-08  0.61805249E-09  0.69415126E-09
  0.49874917E-09 -0.59357614E-09  0.26550271E-09  0.12053948E-09 -0.21753046E-09
 -0.76637240E-10  0.11947731E-09 -0.13276638E-10  0.56594237E-09  0.87495197E-09
 -0.68534478E-09 -0.50228251E-09 -0.33503471E-09  0.21161376E-09  0.99558848E-09
  0.89680095E-09  0.93273735E-10  0.59681590E-09  0.69884441E-09 -0.14362303E-08
  0.15773407E-09 -0.56287781E-09 -0.77885785E-10 -0.24092881E-09  0.11585315E-08
 -0.37550339E-10  0.94505081E-09  0.75365717E-09 -0.88013177E-09  0.14575821E-09
  0.50648044E-10  0.18037890E-09 -0.45277117E-09  0.13531792E-08 -0.40773177E-09
  0.38272745E-09  0.73357278E-09 -0.95880225E-09  0.40519672E-10 -0.22183025E-09
 -0.33399996E-09  0.47877153E-09  0.16611377E-08  0.10671925E-08  0.10457334E-08
 -0.60736029E-10 -0.14511990E-09 -0.17064859E-09  0.42896739E-09 -0.34644987E-09
  0.75599858E-09 -0.80501053E-08 -0.32394510E-08 -0.40135185E-08 -0.40898518E-07
  0.95007152E-07 -0.20657083E-07 -0.14315481E-07  0.20528320E-07  0.89972495E-08
 -0.12135622E-07 -0.13069164E-07 -0.20329858E-08  0.15097007E-08  0.36710330E-07
 -0.17547878E-08 -0.61143651E-08  0.10886750E-07  0.10755512E-08 -0.65250657E-08
 -0.11126163E-07 -0.16724755E-07  0.21426970E-07 -0.31243113E-07  0.23960549E-07
 -0.50694205E-08  0.17005877E-07  0.57707252E-08  0.14761049E-07 -0.26022832E-07
 -0.94836545E-08  0.30714941E-08 -0.32078149E-08 -0.82776075E-08 -0.38261373E-08
  0.10955693E-07 -0.10770001E-07 -0.83300230E-08 -0.17533056E-07  0.21779506E-07
  0.18218970E-07 -0.37367375E-07 -0.15402685E-07  0.19956080E-07  0.27837361E-08
 -0.10603306E-07  0.85353482E-08 -0.32797376E-07 -0.27718012E-08 -0.10414820E-07
  0.16631117E-07  0.11227615E-07  0.12033608E-07 -0.29720075E-08 -0.68757465E-09
  0.17036656E-08  0.26358212E-07 -0.31631462E-07 -0.25418154E-07  0.53505403E-07
  0.61048319E-08  0.46676604E-08 -0.76334868E-08 -0.26519581E-08  0.36758984E-07
  0.59260606E-08  0.13493894E-07 -0.15165787E-07  0.15488198E-07  0.23595850E-07
  0.19048860E-07 -0.33756080E-09 -0.14841169E-08 -0.23749798E-07  0.25503705E-07
  0.21769952E-07 -0.77454385E-08  0.22803366E-07 -0.79334886E-08  0.10569792E-07
 -0.16923428E-07 -0.28817162E-07 -0.17239570E-07 -0.36110102E-07 -0.17120704E-07
 -0.88409768E-09  0.96713577E-08  0.14063313E-08 -0.92358448E-08  0.13939793E-07

  0.65804158E-09 -0.21156478E-08 -0.23157461E-09 -0.26233391E-09 -0.53901196E-10
  0.25282461E-10 -0.22282563E-10 -0.35378952E-10  0.18021722E-09  0.17994063E-09
 -0.16135526E-08 -0.29112838E-09  0.47552565E-10 -0.98808395E-10 -0.88947099E-10
 -0.46645317E-09 -0.92116768E-10  0.10509012E-09  0.13383029E-10 -0.25209205E-08
 -0.68697831E-10 -0.92427119E-10 -0.13914274E-09  0.32098718E-10  0.43292235E-10
 -0.16098570E-09 -0.33977503E-09  0.18319636E-09 -0.19251027E-08  0.21391470E-09
  0.64017973E-09 -0.86020270E-10  0.18192602E-09 -0.77163775E-09  0.26171854E-09
  0.23000923E-09 -0.11528753E-08 -0.28834846E-08 -0.14100590E-09 -0.21014152E-09
  0.11061900E-09 -0.13734434E-09 -0.13894026E-08  0.27550054E-09  0.15201424E-09
  0.28030518E-09 -0.15919913E-08  0.14414771E-09  0.38509724E-10  0.35504426E-09
 -0.16129713E-09 -0.25643272E-09 -0.41793110E-09 -0.14300535E-09 -0.65415484E-09
 -0.29213887E-08  0.36125810E-09  0.17730341E-09  0.10547037E-09 -0.12233953E-09
 -0.45601937E-09 -0.67148287E-11 -0.28177378E-09  0.14885378E-08 -0.16446809E-08
 -0.23392749E-09 -0.44969599E-09 -0.29744185E-09  0.10313525E-09  0.21050332E-07
 -0.20096114E-09 -0.74100337E-09 -0.74947436E-09 -0.35417278E-08  0.12072368E-09
 -0.13684003E-09 -0.29716751E-09  0.17568949E-09 -0.47049433E-09 -0.15567126E-09
 -0.38581291E-11 -0.19370877E-09 -0.19792859E-08  0.48152926E-09 -0.13845326E-10
  0.14858014E-09 -0.17405724E-09 -0.26713788E-09 -0.53400160E-10  0.10218045E-09
  0.45993074E-09 -0.63733638E-09 -0.11544279E-08  0.14739600E-09  0.10593370E-09
 -0.19725347E-09  0.19693543E-09  0.22088341E-09  0.34334984E-09  0.49475599E-11
 -0.92999454E-09  0.86859172E-09 -0.89036826E-09 -0.21172228E-09 -0.23008031E-10
  0.64257639E-09  0.10354566E-09 -0.75771893E-10 -0.13630118E-08 -0.15773682E-08
 -0.43384986E-09 -0.89969291E-09 -0.56440644E-09  0.28383078E-09  0.67592577E-09
  0.16232051E-09 -0.95560976E-10 -0.72167690E-10 -0.29262124E-08 -0.40163912E-09
  0.30269695E-09 -0.40312406E-09 -0.31646531E-09 -0.66232696E-09 -0.53882636E-10
  0.42328536E-10  0.14753697E-08 -0.19154344E-08 -0.49673154E-10 -0.42765888E-09
  0.25804868E-09  0.11345987E-09  0.95323539E-10  0.19656448E-09 -0.25629892E-09
  0.39179198E-07  0.15783536E-07  0.17315803E-07 -0.80952143E-08 -0.68369804E-08
 -0.51078516E-08 -0.57920375E-07 -0.91811404E-08  0.34240345E-07  0.91205133E-09
 -0.72303270E-08  0.49240770E-09 -0.18058246E-07 -0.11733485E-07 -0.25958353E-09
  0.50178742E-07 -0.64359136E-08 -0.16753112E-07 -0.11731059E-07  0.64057934E-08
  0.43730811E-08 -0.29619047E-07 -0.23762662E-07  0.98014904E-08  0.39033375E-07
 -0.10659598E-07  0.86518211E-08  0.20892493E-07  0.10591948E-07  0.16703106E-07
  0.75824385E-08  0.60926563E-08 -0.45912558E-08  0.25374968E-07  0.39971422E-09
 -0.17411089E-07  0.36032610E-08  0.61038919E-08  0.22444713E-07  0.27964262E-08
 -0.53693037E-09 -0.92651421E-08 -0.78393732E-08  0.12905534E-08 -0.15432903E-07
 -0.11092189E-07 -0.15640178E-07  0.44778217E-08  0.34035734E-07  0.16645293E-07
  0.14405447E-09  0.45497701E-08 -0.19947162E-08  0.50957091E-08 -0.11576763E-07
  0.32638387E-08 -0.14014722E-07 -0.29396079E-07  0.21164288E-07 -0.76472857E-08
  0.74859002E-08 -0.32209037E-07 -0.14906082E-07  0.67236529E-08  0.18227189E-07
 -0.27714082E-08 -0.18316397E-07 -0.17173351E-07  0.11191807E-07  0.27034423E-08
  0.12354537E-07  0.11445406E-07  0.48455403E-08  0.86897189E-08  0.23850267E-07
  0.44872853E-08  0.46757623E-09 -0.68836295E-08  0.27578029E-07 -0.34120778E-08
 -0.10424140E-07 -0.28084776E-07 -0.15471283E-07 -0.17217047E-07  0.12445308E-07
 -0.34571744E-07 -0.10177640E-07  0.38249365E-07 -0.53263701E-08 -0.47522379E-08

 -0.55150514E-10 -0.37712345E-09  0.85206361E-09 -0.21008187E-09 -0.11652230E-10
 -0.19289953E-09 -0.40775788E-10 -0.10017367E-08 -0.93908886E-12 -0.37368527E-09
 -0.12154289E-08  0.14323901E-09  0.24942878E-09 -0.95432327E-10  0.10399403E-10
  0.67896866E-10 -0.48581988E-09 -0.23812721E-10  0.67239668E-09 -0.43158316E-09
  0.35996092E-10  0.34944527E-09 -0.11789344E-10 -0.70257024E-10  0.57336095E-10
 -0.81867473E-09  0.19021365E-09  0.51730618E-09 -0.27114790E-09  0.22916496E-09
  0.71049661E-09 -0.31852124E-09  0.73604616E-09  0.25566153E-09 -0.10061908E-08
  0.11005459E-09  0.24046183E-09 -0.12441739E-09 -0.10728663E-08  0.15361339E-10
  0.16123450E-09 -0.33806938E-09  0.12152308E-09 -0.15443830E-08 -0.13177950E-09
  0.75082487E-10  0.34126462E-09  0.30621054E-10  0.99761570E-09 -0.23698789E-09
 -0.37545779E-09  0.11452697E-09 -0.81693023E-09  0.10931285E-09 -0.38576790E-09
 -0.85159899E-10  0.82820684E-09  0.68144068E-11 -0.33556925E-10 -0.32088480E-09
  0.42250540E-11 -0.54759938E-09  0.33037104E-09  0.85961269E-09 -0.45521714E-09
 -0.27206410E-09 -0.20898421E-08 -0.50497058E-09  0.16668636E-08 -0.20096114E-09
  0.17688003E-07 -0.31614584E-10 -0.41540462E-10 -0.98205536E-09  0.48664550E-11
 -0.26750729E-09 -0.17734684E-09  0.45617275E-09 -0.22051467E-09 -0.85019426E-09
  0.32892657E-09 -0.25787167E-10 -0.69109363E-10  0.27886029E-09  0.23074431E-09
  0.70422117E-11 -0.50226316E-11  0.61298468E-10 -0.56343795E-09 -0.65459285E-10
 -0.34099516E-09 -0.95917806E-09  0.11710687E-08 -0.23140813E-09  0.21313266E-09
 -0.26313836E-09 -0.24841399E-10 -0.32855400E-09 -0.26936690E-09  0.30668628E-09
 -0.26515947E-09  0.16479385E-09  0.22050496E-09  0.35932252E-09 -0.63751103E-09
 -0.13575221E-09 -0.12539852E-08 -0.12102615E-09 -0.47607851E-09 -0.26635945E-09
 -0.66991564E-09  0.30701519E-09 -0.50554842E-10  0.46626984E-10  0.29778044E-09
 -0.94815280E-09  0.38244569E-09 -0.76810656E-10 -0.49562722E-09 -0.52280581E-09
 -0.10062889E-08  0.35866477E-09 -0.31078017E-09 -0.16513734E-09 -0.15899492E-08
 -0.15148186E-09  0.71755157E-09 -0.10105183E-09  0.26642619E-09  0.23070628E-09
  0.92060142E-12  0.49758785E-09  0.18200387E-09  0.43475351E-09 -0.39895788E-09
 -0.28990389E-07 -0.88974312E-08 -0.74900690E-08  0.28057372E-08  0.14244410E-07
 -0.14601233E-07  0.14258854E-07  0.25099815E-07  0.44731038E-08  0.22730377E-07
  0.96609577E-08 -0.14228609E-07  0.22423516E-08 -0.26708273E-08 -0.23534392E-08
 -0.41179455E-08 -0.73151151E-08  0.18386124E-07  0.12681045E-07 -0.22224008E-07
 -0.19688961E-07  0.90482945E-08  0.62241840E-08  0.99495476E-09 -0.28003347E-07
 -0.29909640E-07  0.10288953E-07 -0.60490134E-08 -0.12871591E-08  0.24663021E-07
 -0.73317660E-08 -0.19296067E-08  0.25589212E-08 -0.14735421E-07  0.12848702E-07
 -0.87254396E-08 -0.98270058E-08  0.66396585E-08  0.93159634E-08  0.11785398E-07
 -0.15685217E-07  0.15509417E-07 -0.17166967E-07 -0.71853788E-08 -0.56356551E-08
  0.40989511E-08 -0.11468015E-07  0.10598324E-07 -0.21251956E-07 -0.20237483E-08
  0.51183145E-08  0.90163052E-08  0.20734197E-07  0.46008637E-08 -0.57525154E-09
  0.14023380E-07  0.10901070E-07 -0.26580692E-07 -0.14044039E-07  0.67085715E-08
 -0.10260665E-07 -0.33064621E-08 -0.40435578E-08  0.44072678E-08  0.17180051E-07
  0.23497963E-08 -0.58011455E-08  0.34535731E-08  0.69676141E-08 -0.90031951E-08
  0.79513732E-08  0.67956551E-08 -0.20079438E-07  0.13808273E-07 -0.46746645E-08
  0.10556150E-08 -0.65051778E-08  0.73755946E-08 -0.42089754E-08  0.14963227E-08
  0.97321189E-08 -0.20746756E-07 -0.11678353E-07  0.18500036E-08 -0.19739820E-07
 -0.13513389E-07 -0.10503935E-07  0.30343623E-07 -0.28299158E-07  0.16258870E-07

 -0.36068658E-09 -0.31383814E-09  0.74077708E-09 -0.25933259E-09  0.24857328E-10
  0.27080253E-09  0.25319498E-09 -0.30768920E-11  0.41378232E-09 -0.16604367E-09
  0.66088155E-09 -0.25305644E-10  0.67895942E-10 -0.20627820E-09 -0.58488242E-10
  0.19670380E-09 -0.14980574E-10  0.14440122E-09 -0.89011041E-10 -0.41260803E-09
 -0.11084653E-09 -0.12679126E-10 -0.22579787E-09 -0.10425249E-09 -0.41397462E-09
  0.60560835E-10  0.44971297E-09  0.12127345E-09 -0.26191653E-09  0.72605258E-09
 -0.10382553E-09  0.66481488E-09  0.11970690E-09  0.16062455E-09  0.47823478E-09
  0.83031008E-10 -0.49946909E-10 -0.18244174E-09  0.93947385E-10 -0.12135974E-09
  0.50520052E-09  0.22098097E-09  0.93119457E-10 -0.95965126E-10 -0.84242313E-09
  0.11693434E-09  0.16394449E-09 -0.52603228E-09 -0.29293194E-10 -0.64435553E-09
 -0.15144784E-10 -0.33933240E-10 -0.10477812E-09  0.22941690E-10  0.38551344E-09
  0.34891574E-09 -0.32181604E-09 -0.75532602E-10  0.44818317E-10  0.27235897E-09
 -0.25886021E-09  0.33411926E-10  0.80512579E-09 -0.22682509E-09 -0.16917519E-09
  0.12011438E-08 -0.99457980E-11 -0.18594340E-09 -0.62089795E-10 -0.74100337E-09
 -0.31614584E-10  0.17230512E-07  0.13171046E-09 -0.16157717E-08  0.68609606E-10
  0.53646952E-10 -0.65380936E-09  0.99228115E-10 -0.44378263E-10  0.16507145E-09
 -0.43177955E-09  0.50645554E-09  0.74730093E-10 -0.54672083E-09  0.16545234E-09
  0.25396587E-09 -0.68728967E-09  0.13300441E-09 -0.88380612E-10  0.51271191E-09
 -0.12085431E-08  0.79903514E-09 -0.98412247E-09  0.30217983E-09 -0.47712782E-09
  0.78506265E-10  0.43527111E-09 -0.19312176E-09  0.36305790E-09  0.81754555E-09
  0.48914439E-09  0.84691935E-09 -0.21199019E-09  0.34760813E-09  0.32286925E-09
  0.46122879E-10 -0.37452456E-09  0.36194468E-09 -0.57755832E-09  0.79858133E-09
 -0.37081335E-09  0.23595384E-09 -0.16934245E-09 -0.16997947E-09 -0.13114258E-10
 -0.12849869E-09  0.62706599E-09 -0.45215100E-09 -0.40480926E-09 -0.73191182E-10
  0.18599679E-09 -0.39749809E-09 -0.12153211E-09  0.75186596E-10 -0.53428000E-09
 -0.10172907E-08 -0.90128796E-10  0.10311585E-08  0.91191735E-09 -0.59098420E-10
  0.45303594E-09  0.89769080E-10 -0.15835013E-09  0.16627946E-09 -0.61839926E-09
  0.19710807E-07  0.19464629E-07  0.17287031E-07 -0.18373473E-07  0.18832340E-08
  0.21060852E-07  0.20064616E-07  0.39053413E-08  0.16851302E-08 -0.46068998E-08
  0.50082520E-08  0.79768485E-08 -0.25100594E-08  0.10519453E-07  0.70545860E-09
 -0.11017617E-07 -0.19605860E-08  0.19567553E-07 -0.18332042E-08 -0.32232852E-08
 -0.10600921E-07  0.58876794E-08 -0.37348333E-08 -0.38333018E-08 -0.42966730E-08
  0.46952013E-08  0.10567318E-07  0.18302597E-07 -0.34249911E-08 -0.10115975E-07
 -0.14662692E-07  0.26716493E-07  0.17101970E-07 -0.20074336E-07 -0.92523009E-08
 -0.75976223E-09  0.17296159E-07 -0.30006916E-07  0.14795500E-07  0.12918139E-07
 -0.22189655E-08 -0.55108145E-08 -0.20642654E-07 -0.13660691E-07 -0.27749302E-08
  0.92808332E-08 -0.22113502E-07 -0.45526512E-08  0.18063847E-08 -0.17305921E-07
  0.70430267E-08  0.63033302E-08  0.15206973E-07 -0.25572329E-08 -0.95517793E-08
  0.18698739E-07 -0.33073681E-08 -0.13220551E-07  0.50954554E-08 -0.21761428E-08
 -0.78859846E-08  0.45668420E-08 -0.16403250E-07 -0.83211974E-09  0.19812170E-07
  0.12966877E-08  0.17325232E-08  0.12288140E-07  0.94970793E-08  0.13573680E-07
  0.19658561E-08  0.13021097E-07  0.17645413E-07 -0.82254581E-08  0.21699725E-08
  0.29479658E-08  0.17069245E-07 -0.24277456E-07 -0.37447646E-08  0.21372566E-08
 -0.28016011E-07 -0.96219816E-08  0.30045316E-08 -0.19381820E-07 -0.56359295E-08
 -0.31211356E-07  0.14361777E-08 -0.60638241E-08 -0.20593565E-07 -0.72198908E-08

  0.10373200E-08 -0.10439471E-07  0.10888871E-08  0.24560124E-08 -0.45430921E-09
 -0.23012387E-09 -0.12207887E-08 -0.18963920E-08 -0.37044045E-09 -0.23011799E-08
 -0.95129598E-08 -0.28194062E-09 -0.17836700E-08  0.16832661E-09  0.41923099E-11
  0.60758719E-09 -0.13614355E-08  0.17093797E-09  0.27038328E-08 -0.12377482E-07
 -0.26266009E-09 -0.46353736E-09  0.25267147E-09 -0.31758811E-09 -0.10743957E-08
  0.48148541E-09 -0.78749791E-09  0.62752507E-08 -0.10216254E-07 -0.21066096E-09
 -0.17335696E-08  0.62981013E-09  0.54131171E-09  0.29583398E-09  0.23174722E-09
  0.21754638E-09  0.11565772E-08 -0.12260258E-07 -0.57181623E-09  0.14845406E-09
  0.39907829E-09 -0.95345181E-10 -0.15649995E-08  0.14889604E-08 -0.24000227E-09
 -0.12648621E-08 -0.94890203E-08  0.10176484E-08 -0.18829015E-08  0.46596887E-09
  0.36316748E-09  0.45314475E-09  0.10725600E-08 -0.34012181E-09  0.59908501E-09
 -0.95487723E-08  0.47347838E-09 -0.22149148E-10  0.44197485E-10  0.37086523E-09
 -0.54717312E-11 -0.86945524E-09  0.54864549E-10  0.71669164E-08 -0.11457817E-07
 -0.29961093E-09 -0.30892308E-09 -0.64537899E-09  0.53552037E-09 -0.74947436E-09
 -0.41540462E-10  0.13171046E-09  0.11737206E-06 -0.12475562E-07  0.11007491E-08
  0.14280491E-08 -0.59348157E-09 -0.25744796E-09  0.10821168E-08 -0.22043625E-10
  0.35533491E-09 -0.12923553E-08 -0.92150394E-08  0.14072897E-08  0.10258694E-09
  0.33016357E-09 -0.46672365E-09 -0.28790766E-08  0.10622163E-08 -0.28087507E-09
  0.39636460E-08 -0.10629590E-07  0.26497735E-09  0.10693393E-08 -0.43264694E-09
  0.74461032E-09  0.55664564E-09 -0.17529661E-09  0.67665715E-09  0.11034060E-07
 -0.11059972E-07  0.12701230E-08 -0.26473101E-09 -0.60920620E-09  0.75715992E-09
  0.10330289E-08 -0.64170800E-10  0.60075544E-09 -0.26304402E-08 -0.10155635E-07
  0.24290313E-08 -0.17358885E-08  0.25408685E-09  0.20578848E-09 -0.11836029E-08
 -0.28219239E-09 -0.72884456E-10  0.32182361E-08 -0.88254010E-08  0.98160813E-09
 -0.26866959E-09  0.61987101E-10  0.71751898E-10  0.46981382E-09 -0.33463391E-09
  0.95958950E-10 -0.17046080E-08 -0.81823333E-08  0.35083188E-08  0.85217246E-09
  0.56527265E-09 -0.36881976E-09 -0.15160430E-08  0.65402422E-09  0.62298575E-09
  0.11403867E-06  0.36709896E-07  0.59868110E-07  0.14159533E-07 -0.40510770E-07
  0.55086745E-07 -0.75462696E-07 -0.98637051E-07  0.61258187E-07  0.17502132E-06
 -0.45899287E-07  0.54829899E-07  0.13749588E-06  0.49301556E-07 -0.29464765E-07
 -0.99832471E-08  0.70610168E-07 -0.54242146E-07  0.65964288E-07  0.10367300E-06
 -0.38204913E-07  0.28293941E-06  0.38024359E-07 -0.43524047E-07 -0.33273659E-07
 -0.67017933E-07  0.84253150E-07 -0.63626851E-07  0.62724370E-07 -0.13267038E-07
  0.59450659E-07 -0.59302730E-07  0.35740560E-07 -0.10533549E-06  0.62255195E-07
  0.24905291E-07  0.69779126E-07  0.31185982E-07 -0.10706068E-07 -0.16038350E-07
  0.18722211E-07 -0.23066646E-07 -0.32097144E-07  0.14498335E-07 -0.31257925E-07
  0.11528392E-08 -0.46853787E-07  0.54940881E-08  0.16784523E-06  0.10354185E-06
 -0.79433359E-07 -0.11852884E-07 -0.11721508E-06 -0.34502072E-07  0.16041507E-07
  0.39094814E-07 -0.78417706E-08 -0.19180910E-06  0.68052744E-07  0.43430785E-07
 -0.72134138E-08  0.10505431E-07 -0.44973638E-07  0.96862744E-07 -0.42262843E-08
 -0.88468302E-07  0.19304219E-06 -0.35446554E-07  0.27688985E-08 -0.29896105E-07
 -0.97062899E-08  0.84034956E-08  0.16097146E-06 -0.90158077E-07  0.25721354E-07
  0.89559279E-07 -0.14322348E-07  0.16439301E-07 -0.10309779E-06 -0.39514730E-07
  0.12528745E-07 -0.50898637E-07  0.69594940E-07 -0.54378866E-07 -0.12321019E-06
  0.66497591E-07  0.79184286E-08 -0.11675072E-06 -0.38025164E-07  0.68718257E-08

  0.21641503E-09  0.21677074E-05 -0.58118265E-08  0.40158347E-08  0.41093561E-09
  0.39724569E-08 -0.58657477E-08 -0.17763254E-08 -0.26218487E-08  0.11821452E-08
  0.21568003E-05 -0.70784204E-08  0.29740409E-08 -0.67807209E-08  0.25874344E-08
 -0.40909190E-08  0.18347387E-08  0.14847835E-08 -0.17774763E-08  0.21701626E-05
  0.67357340E-08  0.17965525E-08  0.11306661E-07 -0.32001346E-09  0.35550581E-08
  0.13522191E-08 -0.10984209E-08  0.71104335E-08  0.21528277E-05  0.20159025E-08
  0.20571916E-09  0.85951378E-08  0.35534240E-09  0.41686562E-08  0.12112171E-08
  0.12400356E-08 -0.36786789E-08  0.21416164E-05  0.97045003E-08  0.23888187E-08
 -0.65150212E-09  0.75431372E-09  0.60708954E-10  0.13996681E-08 -0.22347309E-08
 -0.82488134E-09  0.21368836E-05 -0.11165934E-08  0.22702622E-08  0.13871513E-08
  0.15757581E-08  0.17832516E-09 -0.24431477E-08  0.62005244E-08  0.11238537E-07
  0.21221432E-05 -0.21614401E-08  0.56785439E-09  0.43787412E-10  0.15771709E-08
 -0.27989330E-08 -0.34365977E-09  0.15236483E-08  0.21765962E-08  0.21590199E-05
  0.56740470E-08 -0.53807882E-08  0.68261505E-08  0.19359073E-08 -0.35417278E-08
 -0.98205536E-09 -0.16157717E-08 -0.12475562E-07  0.22451575E-05 -0.11611525E-07
  0.46347733E-08 -0.34521754E-08  0.44420347E-09 -0.20004902E-08  0.31994739E-09
  0.41352276E-09  0.89368243E-08  0.21401573E-05 -0.45883300E-08  0.61769375E-08
 -0.38191863E-08 -0.16769751E-08  0.52470032E-08 -0.16539092E-10 -0.88794973E-09
 -0.17757029E-08  0.21735545E-05  0.11252653E-07 -0.80286230E-09  0.54024633E-09
  0.39740712E-08 -0.34366016E-08  0.35586026E-09 -0.89922982E-09  0.16619100E-07
  0.21545543E-05 -0.32664494E-08 -0.33300514E-08  0.92447253E-08  0.15425482E-08
 -0.31938221E-09 -0.27283668E-08  0.44901123E-08 -0.26835465E-09  0.21465726E-05
 -0.69881387E-10  0.75846958E-08 -0.90877073E-08 -0.26931038E-09 -0.41363352E-08
  0.99960066E-09 -0.13426743E-08  0.31146989E-08  0.21623487E-05 -0.19739093E-08
  0.42133968E-08  0.72380754E-09  0.18774849E-08 -0.93006250E-09 -0.19986065E-08
  0.34997863E-08  0.41970909E-08  0.21580121E-05 -0.53998432E-08  0.26814978E-08
 -0.61182918E-08  0.27834163E-08  0.12103651E-08 -0.67433983E-09 -0.42980519E-08
 -0.32297434E-06 -0.96184027E-05  0.16232470E-05 -0.13166945E-07  0.16497505E-05
 -0.13853835E-06  0.93935125E-07  0.11638786E-07  0.89733646E-07  0.15324566E-05
 -0.19485836E-05 -0.51634041E-06  0.22531806E-06 -0.23840578E-06  0.12853979E-06
  0.70901478E-06 -0.44372243E-06 -0.82224072E-07  0.19872988E-05 -0.33808977E-05
 -0.14849860E-06  0.51219003E-06 -0.59804402E-06  0.45534153E-07 -0.36798781E-07
  0.73183084E-06 -0.12328780E-05  0.39340146E-06 -0.85525430E-06  0.17157792E-07
 -0.17452686E-06 -0.35573810E-06  0.11613188E-06 -0.25192169E-06  0.38660892E-06
 -0.24086478E-06  0.13285530E-05 -0.32725406E-05 -0.10964577E-06 -0.57109544E-06
  0.40965802E-06  0.50687587E-06 -0.63535683E-06 -0.35369811E-06 -0.36577019E-06
  0.10652492E-06 -0.24076348E-05  0.48426609E-06  0.24476733E-06 -0.88900510E-06
  0.28255563E-06  0.87785481E-06 -0.15648880E-06  0.45872984E-06  0.19176110E-05
 -0.38254867E-05  0.47957608E-06  0.16510473E-06 -0.10094378E-05  0.70946499E-06
 -0.11943943E-06  0.11375549E-06  0.59562294E-06  0.11116351E-05 -0.24337397E-05
 -0.43491335E-06 -0.28818611E-06 -0.72505547E-06 -0.18831852E-07  0.83132218E-07
  0.90531629E-07 -0.52954236E-06  0.83097355E-06 -0.30133443E-05 -0.60095441E-06
 -0.44664782E-06  0.17231364E-06  0.63914147E-06  0.49238191E-06 -0.48693846E-06
  0.18157861E-06  0.77203976E-07 -0.16316335E-05  0.48420072E-06 -0.26977071E-07
  0.53924274E-06  0.30461474E-06 -0.67993458E-06  0.78124060E-06 -0.92828780E-06

  0.10082391E-08 -0.11748279E-07 -0.20481492E-08 -0.12145640E-08  0.94620366E-10
  0.26957753E-09 -0.39405021E-09  0.17051105E-09 -0.72650073E-09 -0.19930343E-09
 -0.66915303E-08 -0.38587476E-08 -0.20685209E-09  0.43663567E-10 -0.21728383E-08
  0.59298132E-09 -0.16493445E-09 -0.10453556E-08  0.27728599E-09 -0.11766654E-07
 -0.13069165E-09 -0.32593485E-09  0.33681598E-09  0.48144338E-09 -0.84673767E-09
 -0.59582895E-09 -0.10254935E-08 -0.61472326E-09 -0.99736779E-08  0.18400518E-08
 -0.23853946E-09 -0.75313005E-09  0.15571831E-08  0.21275802E-09  0.19903749E-09
  0.82883235E-09 -0.35900132E-09 -0.11173203E-07 -0.17023119E-08  0.37902423E-09
 -0.71020878E-09  0.74335125E-09 -0.21692065E-09  0.47215936E-10 -0.94571250E-09
  0.14269443E-08 -0.10125870E-07 -0.32325942E-09  0.75191860E-09  0.17846455E-09
 -0.79845574E-09 -0.17961765E-09  0.10065659E-09  0.33419517E-09  0.58731719E-10
 -0.96388645E-08 -0.63297856E-11 -0.83659845E-09  0.44016556E-09  0.31429269E-09
 -0.91845863E-10  0.56153139E-09  0.68259271E-09 -0.85863523E-09 -0.12092891E-07
  0.50649178E-08 -0.17343483E-10 -0.62751167E-09  0.13384597E-09  0.12072368E-09
  0.48664550E-11  0.68609606E-10  0.11007491E-08 -0.11611525E-07  0.91891361E-07
 -0.22980736E-10  0.60462480E-09 -0.36141798E-09  0.22849805E-09 -0.15859859E-09
  0.29607388E-10  0.20301079E-08 -0.88629313E-08 -0.31407172E-09  0.59972910E-09
 -0.66129042E-09  0.42957834E-09 -0.18252896E-09 -0.59725326E-09 -0.12414612E-08
  0.76142216E-09 -0.11164005E-07 -0.49671591E-08 -0.19644698E-09 -0.28639144E-09
  0.41428055E-09  0.55155046E-09  0.11797077E-08  0.11234183E-08  0.13861586E-08
 -0.12157557E-07  0.42136150E-08 -0.13761153E-08  0.23372716E-09  0.32635203E-08
  0.29336801E-09  0.45877547E-09  0.17116450E-08  0.12661054E-08 -0.73852940E-08
 -0.30833460E-08 -0.10492634E-08 -0.21994952E-09  0.11362870E-08  0.24299983E-09
 -0.16626784E-09  0.76035572E-10  0.83189401E-09 -0.10719557E-07  0.45201246E-08
 -0.37861694E-09  0.31804832E-10 -0.73034438E-10  0.29081571E-10  0.13258728E-09
  0.54770693E-09  0.31522971E-08 -0.10224641E-07 -0.47995377E-09  0.99231326E-09
 -0.37544945E-09 -0.17591877E-08  0.67756774E-09 -0.25051111E-09 -0.82217577E-09
  0.89891135E-07  0.15268705E-06 -0.14681095E-07 -0.61154184E-07  0.90001435E-07
 -0.69711729E-07  0.18851190E-07  0.89122700E-07 -0.10149637E-06  0.49399409E-07
  0.22683778E-07  0.10034009E-06  0.47130453E-07  0.22394674E-07  0.19613462E-07
 -0.54757535E-07  0.48392454E-07  0.94791448E-08 -0.50467751E-07  0.93009281E-07
  0.30118721E-07 -0.14765250E-06  0.10734045E-06  0.13554238E-06  0.56089829E-07
  0.77699670E-07  0.76985982E-07  0.25368667E-08 -0.42372847E-07 -0.76608886E-07
 -0.37383004E-08  0.46522475E-07  0.46951651E-07  0.23969083E-07  0.48746433E-07
 -0.36892950E-07 -0.46207100E-07 -0.29960317E-07  0.10916948E-06  0.19580155E-07
  0.16489726E-07  0.68329215E-08 -0.60657644E-07 -0.38447480E-07 -0.12639867E-07
  0.12376952E-07 -0.19218996E-08  0.98039126E-07 -0.27255589E-07 -0.52980363E-07
 -0.44693494E-07 -0.66157584E-08 -0.18010796E-07  0.34877215E-07  0.32304574E-08
  0.34103788E-07  0.55584123E-07  0.60713130E-08  0.37536092E-07 -0.10056834E-07
 -0.49788923E-07  0.97907569E-08 -0.53268375E-08 -0.82617218E-07  0.62546231E-07
  0.51829659E-07  0.35253201E-07  0.58916698E-08 -0.79416138E-08 -0.25297384E-07
  0.32857965E-07  0.22830191E-07  0.21760382E-07 -0.71080883E-07 -0.15251549E-06
 -0.15677842E-07 -0.50679883E-08 -0.23147547E-07  0.21230717E-07  0.43169353E-07
 -0.58254329E-07 -0.49408980E-07 -0.64357698E-07 -0.13283447E-07 -0.30919513E-07
  0.13767000E-07 -0.38392156E-07 -0.11115777E-08 -0.10701695E-07  0.31897617E-07

  0.58921910E-09  0.44068683E-08  0.10633977E-09  0.11507790E-08  0.56265513E-09
  0.44437074E-09  0.11474205E-09 -0.17361566E-09  0.31352225E-09  0.86553965E-09
  0.47516968E-08 -0.20133464E-09 -0.38973042E-09  0.29875266E-09  0.78353085E-09
  0.27846400E-09  0.65573726E-09 -0.29776829E-09  0.20908866E-09  0.44116001E-08
 -0.16691489E-09 -0.67071724E-09  0.82824736E-09  0.24185397E-09  0.65260751E-09
 -0.33839468E-09 -0.21815522E-09 -0.62122632E-09  0.30190366E-08 -0.44441258E-09
  0.95372446E-10  0.83093442E-09  0.81241851E-10 -0.65794725E-09 -0.51314351E-09
 -0.17692838E-09 -0.22295873E-08  0.38712717E-08  0.20763467E-09 -0.37844905E-09
  0.59068302E-09  0.69138086E-09  0.10728786E-09 -0.10889004E-09 -0.87242492E-10
 -0.39454593E-09  0.59901372E-08 -0.14698496E-09  0.23033801E-09  0.85669504E-09
  0.64614954E-09 -0.50566540E-09 -0.44729128E-09  0.83407929E-10 -0.94742299E-09
  0.47091098E-08  0.12781164E-08 -0.35672926E-09  0.99244704E-09  0.47969055E-09
 -0.26505709E-09  0.55215776E-09  0.70141455E-10  0.11461420E-08  0.52478420E-08
 -0.23483318E-09 -0.13224392E-09  0.53924414E-09  0.64904826E-09 -0.13684003E-09
 -0.26750729E-09  0.53646952E-10  0.14280491E-08  0.46347733E-08 -0.22980736E-10
  0.42233812E-07 -0.10794526E-07 -0.81162500E-08 -0.79794830E-09 -0.10666645E-08
  0.12329543E-10 -0.16652413E-08  0.33277252E-08  0.36752668E-10 -0.53175672E-09
  0.72885976E-09  0.53145625E-09  0.60626632E-09  0.62578170E-09 -0.12214952E-09
 -0.25495008E-08  0.49340524E-08  0.59922750E-09 -0.63244805E-09  0.24533080E-09
  0.76645571E-09 -0.12341213E-09 -0.43102764E-09  0.16908450E-09  0.76899200E-09
  0.42516853E-08  0.75925223E-09 -0.15788174E-08  0.71945784E-09  0.80595382E-09
 -0.86277081E-09  0.53330446E-09 -0.19705501E-10 -0.12566665E-08  0.50390573E-08
  0.97506684E-09 -0.22621014E-08  0.50882576E-09  0.82825034E-09  0.54496518E-10
  0.11899312E-09 -0.76894348E-10 -0.76784383E-10  0.45735182E-08  0.16632646E-09
 -0.25935513E-08  0.98382221E-09  0.12562974E-08  0.13956698E-10 -0.30603981E-09
  0.21417472E-09  0.19254984E-08  0.44256507E-08 -0.99474671E-09 -0.39308042E-09
  0.44283575E-09  0.34561418E-09  0.17490631E-09  0.24006659E-09 -0.11987252E-09
  0.70815644E-07 -0.23880210E-07  0.66027561E-08 -0.10544948E-07  0.83978125E-08
 -0.13329108E-07 -0.81912476E-07 -0.27217044E-07 -0.88524361E-08 -0.34678651E-07
  0.15896343E-07 -0.39672157E-07 -0.84357256E-07 -0.19318829E-07  0.29481068E-07
  0.49569141E-07  0.16370295E-08 -0.60001502E-08 -0.55355744E-07  0.54556998E-09
 -0.31477777E-07 -0.20832070E-07 -0.29332979E-07  0.12166783E-07  0.47367152E-07
 -0.55045353E-08  0.25585709E-07 -0.37105827E-08 -0.14922178E-07  0.27426103E-07
  0.28909312E-07 -0.50043764E-08 -0.18908026E-07  0.28399246E-07 -0.85152328E-08
 -0.29912865E-08  0.27482810E-07 -0.10221964E-07 -0.54681247E-08 -0.35649265E-07
  0.88688311E-08  0.15964175E-07 -0.21564463E-07  0.54229612E-08  0.38078088E-08
 -0.65516328E-08 -0.88623640E-08 -0.13375939E-07 -0.86671497E-07  0.42689941E-07
  0.19406299E-07  0.21953980E-07  0.13377919E-08  0.16887226E-07  0.24004237E-07
 -0.62196876E-09  0.20848944E-07 -0.42870082E-07  0.99917071E-09  0.28770453E-07
 -0.11649247E-07  0.15974111E-07 -0.93374608E-08 -0.38406694E-07 -0.81306608E-08
  0.30411035E-08  0.77501018E-07 -0.20918586E-07 -0.12651411E-07 -0.97965342E-08
  0.58361662E-08  0.18490840E-08  0.54606857E-07 -0.12606612E-07 -0.52293904E-08
  0.10447516E-06 -0.17687515E-10 -0.19845211E-07  0.15701923E-07  0.57655781E-07
 -0.19012701E-07 -0.18842791E-07 -0.47899814E-08  0.71802958E-08 -0.11401675E-06
  0.28229750E-07  0.44045857E-08 -0.48354851E-08 -0.56646180E-08 -0.52037002E-08

  0.49170420E-11 -0.55438785E-08  0.44174933E-09  0.80048488E-09 -0.93457005E-09
  0.59292764E-09 -0.39591910E-09  0.10434944E-09 -0.15795609E-09 -0.27287957E-09
 -0.32499247E-08 -0.32203155E-09  0.28428900E-09 -0.61958954E-09  0.84739395E-09
  0.19008796E-09 -0.95725672E-10  0.88228362E-10 -0.45627683E-11 -0.30756256E-08
 -0.55493108E-09  0.95399497E-09 -0.16709688E-08  0.67227091E-09  0.12849874E-09
 -0.11852071E-09 -0.37292074E-09 -0.43333657E-09 -0.28931386E-08 -0.32879850E-09
  0.84423072E-09 -0.49568675E-09  0.34583650E-09 -0.87863683E-09 -0.77491909E-11
  0.20815614E-09  0.29400147E-09 -0.45705993E-08  0.39727395E-09  0.84611774E-09
 -0.58261046E-09  0.81996264E-10  0.29533818E-09  0.11818890E-09 -0.30810369E-09
  0.54555029E-10 -0.79677642E-08  0.76467489E-09  0.94666360E-09 -0.17625915E-08
  0.39076583E-09 -0.29185122E-09  0.25726297E-09  0.47805211E-09 -0.35331588E-09
 -0.67478811E-08 -0.53913336E-09  0.10194852E-08 -0.18642869E-08  0.63905359E-09
  0.31822839E-09  0.25915937E-09 -0.12861267E-09  0.15564932E-09 -0.50877696E-08
  0.60786740E-09  0.68558252E-09 -0.95443512E-09  0.62149784E-09 -0.29716751E-09
 -0.17734684E-09 -0.65380936E-09 -0.59348157E-09 -0.34521754E-08  0.60462480E-09
 -0.10794526E-07  0.45887282E-07 -0.92842743E-08 -0.70331738E-09 -0.88746896E-09
  0.25728686E-09 -0.64664673E-09 -0.60932426E-08 -0.50983269E-09  0.71273036E-09
 -0.15975861E-08  0.84695135E-09  0.15062746E-09 -0.10020797E-09  0.97598788E-09
  0.64882102E-10 -0.48388659E-08 -0.21967631E-10  0.26678345E-09 -0.48454860E-09
  0.66905287E-09 -0.69114457E-09 -0.16941986E-09  0.47672487E-09 -0.84703645E-09
 -0.63669530E-08  0.47535670E-09  0.64173544E-09 -0.22101326E-08  0.12914084E-08
 -0.10121897E-08 -0.12578386E-09  0.25307436E-10 -0.45376943E-10 -0.43968062E-08
  0.63497907E-09  0.63193084E-09 -0.80440192E-10  0.52054209E-09 -0.23294605E-09
  0.60431705E-10  0.57377260E-09  0.15315388E-09 -0.49116548E-08  0.52159399E-10
  0.12061086E-08 -0.37160515E-08  0.11188334E-08  0.12643797E-09 -0.16872934E-12
  0.22036719E-09 -0.20131290E-09 -0.79478988E-08 -0.35151842E-09  0.43933252E-09
 -0.10818513E-08  0.10865091E-08  0.17964985E-09 -0.23698375E-09  0.48182509E-10
  0.12904052E-07  0.10911656E-06 -0.20117576E-07 -0.21905040E-08 -0.49095187E-08
 -0.28126567E-07 -0.26436406E-07 -0.62912419E-08  0.15369085E-09  0.23742516E-07
 -0.68368541E-07  0.47180485E-08  0.89095013E-08  0.36844099E-08 -0.36272286E-08
  0.82988012E-08 -0.10216310E-07  0.55346020E-08  0.21270283E-07 -0.29947721E-07
 -0.12397274E-07 -0.62949629E-07  0.95413948E-07 -0.31366093E-07  0.75731666E-07
  0.24656853E-07  0.13589423E-08  0.25360672E-08  0.27132914E-07  0.19948847E-08
 -0.48742712E-08  0.45062991E-07 -0.23529862E-07  0.28899669E-07  0.62762162E-08
  0.22394910E-07 -0.30879520E-07  0.52561584E-07  0.25048459E-07 -0.54111663E-09
 -0.11773947E-07  0.38739538E-07  0.24046734E-07  0.13178185E-07  0.93838304E-08
 -0.15799478E-07  0.22489295E-07 -0.12135851E-07  0.47492852E-07 -0.88539287E-07
  0.23761746E-07 -0.16298978E-07 -0.17419405E-07 -0.35326525E-07 -0.21590504E-07
 -0.17331261E-07  0.52472067E-08 -0.90796161E-08 -0.17523990E-07  0.11820438E-07
 -0.10052780E-07 -0.21533285E-07  0.77483628E-08 -0.13460178E-07 -0.25556468E-07
  0.54673686E-07 -0.13073228E-09 -0.18411232E-07  0.90424790E-08  0.21907596E-07
 -0.30413616E-07  0.13902129E-07  0.67967809E-08 -0.32605430E-07  0.13696592E-07
 -0.79947862E-09 -0.41347788E-07 -0.88273134E-08  0.10537476E-07 -0.38072320E-08
  0.15122618E-07 -0.23011604E-07  0.39653244E-07  0.40917739E-07  0.47711038E-07
 -0.36128464E-07 -0.13608017E-08  0.31765004E-07  0.25161269E-09 -0.30004405E-07

  0.32500157E-09  0.11494346E-08 -0.53736274E-09  0.37232423E-09  0.55037941E-09
 -0.76734701E-09  0.14807110E-10 -0.13818295E-09 -0.11030893E-09  0.40966309E-10
  0.19966409E-08  0.12504083E-09  0.86056214E-09  0.90363438E-09 -0.10961563E-08
 -0.89223906E-10  0.98564566E-11  0.30185499E-09  0.26917423E-09  0.11413756E-08
 -0.71364705E-09  0.27651507E-09  0.68822200E-09 -0.12548632E-10 -0.20596418E-09
  0.17343141E-09  0.30625756E-09  0.57454023E-11  0.15643954E-08  0.12637161E-08
  0.21299859E-09  0.43778658E-09  0.10437948E-08  0.88531496E-10 -0.33929465E-09
  0.64637383E-09  0.35205657E-10  0.12883666E-08 -0.10222529E-08  0.69314570E-09
  0.23872219E-09 -0.69570040E-10 -0.19440930E-09 -0.29421683E-09 -0.71779351E-09
 -0.25893837E-09  0.20962721E-08 -0.16758093E-09  0.77097964E-09  0.37040520E-09
 -0.39133636E-09  0.14414373E-09  0.28308893E-09 -0.38857722E-09 -0.10688057E-09
  0.14905273E-08 -0.12530408E-08  0.62537421E-09  0.63517881E-09 -0.94609978E-09
 -0.12532141E-09  0.24947806E-09 -0.39131330E-10  0.10382350E-09  0.49675677E-09
  0.54094067E-09  0.65223575E-09  0.68450696E-09 -0.16542707E-08  0.17568949E-09
  0.45617275E-09  0.99228115E-10 -0.25744796E-09  0.44420347E-09 -0.36141798E-09
 -0.81162500E-08 -0.92842743E-08  0.25946049E-07  0.79309145E-10  0.18900069E-08
 -0.11545961E-09  0.43494153E-09  0.17349172E-08  0.68837495E-09  0.54192056E-09
  0.70078153E-09 -0.57208463E-09 -0.21011398E-09 -0.45615760E-09  0.98800895E-10
  0.49229130E-09  0.20552408E-08 -0.44871946E-09  0.71536518E-09  0.66994977E-09
 -0.27076979E-09  0.28564289E-09  0.28529657E-09 -0.14638283E-09  0.10633766E-09
  0.95504917E-09 -0.37158873E-09  0.73232709E-09  0.11238066E-08 -0.15668748E-08
  0.74590544E-10 -0.27242463E-09  0.37473764E-09 -0.34651913E-09  0.94323695E-10
  0.47350840E-10  0.93844036E-09  0.49213549E-09 -0.54666793E-09 -0.16739697E-09
 -0.22115392E-09  0.25080482E-09 -0.48939474E-09  0.11377307E-08  0.73106134E-09
  0.11404252E-08  0.96515076E-09 -0.12954258E-08  0.41902162E-10 -0.10799172E-09
 -0.60708624E-10 -0.41398968E-09  0.25378646E-08  0.31995274E-09  0.44130421E-09
  0.97458509E-09 -0.10379419E-08  0.73357809E-10 -0.30184876E-09  0.47870543E-09
 -0.18061432E-07 -0.34214614E-07  0.14174215E-07 -0.76984199E-08 -0.19052350E-07
 -0.36373305E-08  0.10124938E-07 -0.13925801E-07 -0.17934169E-07  0.31588962E-08
  0.13385860E-08 -0.43281578E-07  0.12277710E-07  0.11930622E-07 -0.91553533E-08
 -0.16394099E-07 -0.76335531E-08  0.71135155E-08  0.29748774E-07  0.25305467E-07
  0.11852109E-07  0.19877057E-07 -0.22634193E-07  0.21557767E-07 -0.39357315E-07
 -0.30621440E-09  0.98055625E-08 -0.83407289E-08 -0.12297284E-07  0.17332039E-07
 -0.29801567E-08 -0.21062809E-07  0.33569100E-07 -0.14351500E-07 -0.52699162E-08
  0.13609248E-07  0.70891682E-08 -0.21006498E-07  0.15157547E-07  0.90499073E-08
  0.17319817E-07 -0.26336694E-07  0.11901899E-07 -0.12074359E-07  0.91722094E-08
  0.25655936E-07  0.11297741E-07  0.40295470E-07  0.17171816E-07  0.28170747E-07
 -0.42693758E-07 -0.12045404E-07 -0.16679215E-07  0.66265363E-08 -0.19357310E-07
  0.18882927E-07 -0.28760459E-07  0.16941278E-07  0.23896331E-08 -0.11889353E-07
  0.10700447E-07  0.28170355E-08 -0.81426470E-09  0.27875335E-07  0.22793346E-07
 -0.82581861E-08 -0.28798871E-07 -0.17112746E-08 -0.40172066E-08  0.51210784E-08
 -0.84603987E-08 -0.61754384E-08  0.29206648E-08 -0.66936623E-08 -0.25542868E-07
 -0.11735263E-07 -0.62095348E-08  0.35159864E-08 -0.23929099E-08  0.26883199E-08
  0.12550297E-07  0.70805522E-08 -0.25589108E-07 -0.13311995E-07 -0.87545354E-08
 -0.12551538E-07  0.34348137E-07  0.20852609E-07 -0.15980776E-08  0.92064865E-08

  0.57266191E-10 -0.17794337E-08 -0.36619147E-09 -0.84264173E-09  0.26543445E-09
 -0.35908183E-10 -0.25939024E-09  0.22804624E-09 -0.27315304E-10  0.22388642E-09
 -0.12089005E-08 -0.33982801E-09 -0.83873925E-09 -0.46050674E-09  0.34507942E-10
  0.10844738E-09 -0.58435906E-09  0.42245131E-09 -0.87053661E-09 -0.16817643E-08
 -0.44445800E-09  0.44949476E-09  0.90897992E-10 -0.16771180E-09  0.44523321E-09
  0.30822675E-09 -0.33395118E-11 -0.54570455E-09 -0.10642476E-08 -0.87013316E-10
 -0.10254180E-09 -0.68246738E-09 -0.56191059E-10  0.35879614E-09  0.41501312E-10
  0.80216770E-10 -0.16172854E-08 -0.84615016E-09  0.45271653E-09  0.42229105E-09
  0.63517908E-09 -0.52512471E-09  0.88896566E-09 -0.51382571E-10 -0.17615014E-09
 -0.60435186E-09 -0.15258361E-08  0.54981615E-09 -0.86022752E-09 -0.12567232E-10
  0.16680501E-09 -0.24780612E-09  0.35269371E-09 -0.41578098E-10  0.72608465E-09
 -0.50652990E-09 -0.30631699E-09 -0.83983080E-09 -0.55743215E-09  0.23115474E-09
  0.78169698E-09 -0.42257336E-10 -0.25922856E-10  0.51306695E-10 -0.10335625E-08
 -0.27312505E-09 -0.59055849E-09 -0.13964785E-09  0.37616516E-09 -0.47049433E-09
 -0.22051467E-09 -0.44378263E-10  0.10821168E-08 -0.20004902E-08  0.22849805E-09
 -0.79794830E-09 -0.70331738E-09  0.79309145E-10  0.25080605E-07  0.49842987E-10
 -0.16298619E-09 -0.50325094E-10 -0.20788542E-08  0.50135578E-09 -0.92761976E-09
 -0.87650746E-10  0.50916902E-09 -0.10264773E-09 -0.19871945E-09 -0.17687623E-09
  0.10075969E-08 -0.21113315E-08  0.59135135E-09 -0.20551609E-09  0.12635500E-09
 -0.72203542E-11  0.17485788E-09  0.15690479E-09  0.89981953E-10  0.37752158E-09
 -0.18731467E-08  0.10246065E-08  0.72074206E-09 -0.16810199E-10  0.83465470E-10
 -0.14103569E-08 -0.11022131E-09  0.33527290E-09 -0.79195221E-09 -0.71735479E-09
 -0.32139494E-09  0.55163254E-09 -0.50622601E-09 -0.85447096E-10  0.54456909E-09
 -0.51732993E-09 -0.14048034E-09  0.14262450E-08 -0.89056337E-09  0.46912145E-09
 -0.57380859E-09 -0.64602122E-09  0.13952467E-09 -0.70266501E-09 -0.88653515E-10
  0.17159244E-09 -0.17851809E-08 -0.36980995E-10 -0.87231872E-09  0.27560653E-11
 -0.58876231E-09 -0.10987562E-09 -0.29537209E-09  0.21754762E-09 -0.51848360E-10
  0.11221882E-07  0.62460273E-08  0.36686501E-07 -0.30268872E-07  0.14579553E-09
  0.44983797E-08 -0.69482882E-07  0.24676460E-07 -0.13924684E-07 -0.49933704E-08
  0.34166090E-07 -0.16596671E-07  0.95700033E-08  0.40558803E-08 -0.17626420E-07
 -0.34653153E-08 -0.12378077E-07 -0.11050929E-07  0.28657658E-07 -0.32164417E-08
 -0.47173925E-08  0.12158131E-08  0.24843468E-07 -0.12287236E-07 -0.66841022E-07
  0.26357268E-07  0.33020759E-07 -0.60802080E-08 -0.13378111E-07  0.42285178E-08
 -0.19955698E-07 -0.96335329E-08  0.26265811E-09 -0.18627019E-07  0.30570555E-07
  0.26144198E-07 -0.29927120E-08  0.90239664E-09 -0.43442984E-08 -0.30864410E-08
 -0.17105742E-07 -0.89961753E-08 -0.54921301E-08  0.71486498E-08 -0.12153831E-07
  0.13692789E-07 -0.76134641E-08  0.30515335E-08  0.17110757E-07 -0.92158066E-08
 -0.25433673E-08 -0.51416219E-07  0.12750747E-07 -0.79521481E-08 -0.83729373E-08
  0.13316628E-07 -0.58040938E-08 -0.14870873E-07 -0.29429745E-07  0.90315236E-08
  0.13548235E-07 -0.54336150E-08  0.31172358E-08 -0.52808951E-08 -0.17731105E-07
  0.38791174E-08 -0.15714067E-07  0.42089030E-08  0.92394595E-08  0.26113345E-07
 -0.96804374E-08  0.34424277E-08  0.26388096E-07  0.88927174E-08  0.31487463E-08
  0.22903231E-07  0.36469014E-08 -0.84746645E-08  0.47185480E-07  0.48820736E-09
 -0.39048377E-08 -0.88354222E-08 -0.22295903E-08  0.59539591E-09  0.65649633E-08
 -0.86413398E-08 -0.68309659E-08 -0.88748154E-07 -0.59202326E-09  0.11814837E-07

 -0.23560873E-10 -0.72603802E-10  0.47474422E-09 -0.16437212E-09 -0.58279838E-10
 -0.11486580E-09  0.36943332E-09 -0.32002134E-09 -0.25285752E-10 -0.33289697E-09
  0.64153484E-09  0.50867931E-09  0.58652425E-09 -0.52040015E-10 -0.27212873E-11
 -0.14943586E-09 -0.73046111E-09  0.17729603E-09 -0.13089019E-08 -0.27200982E-09
  0.27172701E-09 -0.24008388E-09 -0.88157347E-10  0.13535022E-09 -0.17520708E-09
 -0.67929358E-09  0.53978228E-10 -0.48930634E-10 -0.17666924E-09 -0.61184948E-09
 -0.47014457E-09  0.15409310E-10 -0.50714302E-09  0.10351503E-09 -0.13044092E-09
 -0.33379476E-09 -0.11866209E-09 -0.89541505E-09 -0.75707484E-09  0.10006403E-09
  0.13762751E-09 -0.52610003E-09 -0.32255268E-09 -0.22853181E-09 -0.82137292E-10
  0.63704292E-09  0.32297703E-09 -0.36423991E-09 -0.23887458E-09  0.10138680E-09
  0.19999476E-09  0.19991411E-09  0.56947463E-10 -0.10498538E-09  0.49895316E-09
  0.70573227E-09 -0.10221132E-08  0.62089686E-09  0.19613154E-09  0.21957535E-09
 -0.85316105E-10 -0.49373691E-09 -0.22571203E-09  0.13590351E-09 -0.73166527E-09
  0.44543068E-09 -0.19254288E-09 -0.13849026E-09  0.38768761E-09 -0.15567126E-09
 -0.85019426E-09  0.16507145E-09 -0.22043625E-10  0.31994739E-09 -0.15859859E-09
 -0.10666645E-08 -0.88746896E-09  0.18900069E-08  0.49842987E-10  0.19111662E-07
 -0.41087739E-09  0.55174977E-09  0.40370171E-10 -0.30388951E-09  0.34940777E-09
 -0.90546690E-10 -0.40904096E-09  0.18689739E-09 -0.71087161E-09 -0.27608075E-10
  0.68201517E-09 -0.70123595E-10 -0.34675016E-09 -0.45288677E-09 -0.23922291E-09
  0.25964727E-09  0.46467653E-09  0.52720351E-10  0.47243239E-10  0.78126284E-09
 -0.28391254E-09 -0.51542886E-09  0.44395513E-09  0.51487403E-10 -0.28807447E-09
  0.10310882E-09 -0.12204321E-08 -0.70594457E-09  0.11202505E-08  0.15353780E-09
 -0.88254801E-09  0.11745635E-09  0.16559701E-09 -0.16695955E-09  0.14021493E-09
 -0.78608346E-09 -0.45464660E-10  0.48952499E-09 -0.41521582E-09 -0.67465666E-09
 -0.39203625E-09  0.77753542E-10 -0.12025991E-09  0.31711585E-09 -0.65027015E-09
 -0.24871156E-10 -0.15986656E-08 -0.58254957E-09  0.29828686E-09  0.22086717E-09
 -0.29994680E-09 -0.21125958E-09  0.19008253E-09 -0.10556508E-08  0.33797532E-09
  0.10499127E-07  0.19613540E-07  0.22921951E-08 -0.28243366E-07 -0.11273105E-07
 -0.14399224E-07 -0.30064366E-07 -0.21857077E-07 -0.70063908E-08 -0.43872128E-07
 -0.41603829E-08  0.55664931E-08  0.54411875E-08  0.35815410E-08 -0.20310042E-07
 -0.14525139E-08 -0.13351621E-07 -0.44265565E-08 -0.22512503E-07 -0.62355174E-08
  0.22085055E-07 -0.53035574E-09  0.21464124E-07  0.95591168E-09  0.30592193E-07
 -0.25219965E-08 -0.23760371E-07  0.28557894E-07 -0.32689148E-08 -0.12480377E-07
 -0.93706282E-09  0.19567008E-08 -0.47024040E-08  0.16253265E-07  0.10611422E-07
 -0.13404099E-08 -0.22743875E-08 -0.13845105E-08  0.84109506E-08  0.52648129E-08
  0.70681279E-08  0.20229778E-08  0.15331681E-07 -0.74002537E-08  0.16985773E-07
  0.52059913E-08  0.43828416E-09  0.15705516E-07  0.28132425E-07 -0.16664625E-07
 -0.23377915E-07  0.12599709E-07 -0.13495071E-07 -0.86128954E-08  0.54467817E-08
 -0.83062162E-08 -0.41952770E-08  0.30950851E-07 -0.14747454E-07 -0.32695434E-08
  0.79017679E-08  0.13197643E-07 -0.27258573E-08  0.14272982E-07  0.17298218E-07
  0.21833289E-07 -0.52731772E-08 -0.48560400E-08 -0.12301568E-08  0.58735704E-08
  0.25145499E-08  0.22414971E-08  0.24152826E-08 -0.86011261E-08  0.49838056E-07
  0.39847860E-07 -0.54300798E-08 -0.16326834E-08 -0.17522590E-08 -0.19452992E-07
  0.63877727E-08  0.87919878E-08 -0.40773089E-08 -0.12499225E-07  0.17852825E-07
 -0.45775963E-08  0.14814999E-08 -0.19879253E-07 -0.20086925E-07  0.29869661E-07

 -0.37459551E-09  0.11493727E-08  0.33054445E-10  0.46702832E-10 -0.27372131E-09
  0.34386865E-09  0.10233951E-09 -0.13461010E-09 -0.26543103E-09 -0.24551355E-09
 -0.12849083E-08 -0.73647192E-09  0.95564114E-10 -0.67063223E-09 -0.64663647E-09
  0.48193253E-09 -0.31826277E-09  0.65701998E-10 -0.60665266E-09  0.98917835E-09
 -0.10193838E-08 -0.34230289E-10  0.64839727E-09  0.11458041E-09  0.39909392E-11
 -0.93648578E-10  0.25118798E-09  0.13865212E-09  0.44221033E-09 -0.10849520E-09
 -0.35262152E-09 -0.16484702E-10  0.69992227E-09  0.81579364E-10 -0.23448349E-09
  0.29970904E-09  0.35191810E-09 -0.43249377E-09 -0.79249139E-09 -0.47465345E-10
  0.40903195E-09 -0.11753566E-09 -0.33093211E-10 -0.22133172E-09  0.25821474E-09
  0.42628577E-09 -0.36632408E-09  0.25772376E-09  0.15882791E-10  0.97141729E-10
  0.16097469E-09  0.52318304E-10 -0.56757136E-10 -0.12018080E-09 -0.41373186E-09
  0.71958922E-09  0.77649198E-09  0.19565199E-09 -0.53797213E-09 -0.25187899E-09
 -0.48353203E-10 -0.25964724E-09  0.45330055E-09 -0.22632118E-09  0.12747720E-08
 -0.28814406E-09 -0.20120941E-09 -0.58047887E-09  0.41295543E-09 -0.38581291E-11
  0.32892657E-09 -0.43177955E-09  0.35533491E-09  0.41352276E-09  0.29607388E-10
  0.12329543E-10  0.25728686E-09 -0.11545961E-09 -0.16298619E-09 -0.41087739E-09
  0.19316000E-07  0.57831895E-09  0.97152546E-09 -0.95556835E-09 -0.95717176E-10
 -0.33723637E-09  0.21837638E-09 -0.53680849E-10  0.47171697E-09  0.13852109E-09
  0.46718775E-09  0.52739154E-09  0.68934706E-09  0.76876028E-10  0.28253976E-09
 -0.38369366E-09  0.18658779E-11  0.39900931E-10  0.78508994E-09  0.10987472E-08
  0.16392288E-08  0.31204611E-08 -0.19624402E-09  0.12623609E-09 -0.14928921E-09
  0.28843824E-09  0.36250570E-09 -0.12611651E-08 -0.30191307E-09  0.50434944E-09
  0.10531594E-09 -0.89716022E-10 -0.55409088E-09 -0.87936024E-10 -0.84424289E-10
 -0.77975734E-10  0.14302983E-09  0.41224113E-09  0.48224776E-09  0.76749878E-09
 -0.74658810E-10 -0.14981550E-09 -0.13759768E-09  0.17423482E-09 -0.21807105E-09
 -0.12959684E-08 -0.80822786E-09 -0.34938205E-09 -0.31873432E-09 -0.76338483E-10
  0.34283249E-09  0.25772768E-09 -0.21136534E-09 -0.15914835E-09  0.10373679E-09
  0.19653710E-07 -0.11550834E-07  0.20592201E-08  0.88799779E-08 -0.11039570E-07
  0.24051346E-07 -0.12524796E-07 -0.13702713E-08 -0.31853111E-07 -0.87282062E-08
  0.75597729E-08  0.58148818E-08  0.35376767E-08 -0.29430610E-07  0.63774702E-08
 -0.46432668E-08  0.49872791E-09 -0.55952639E-07 -0.89712868E-09 -0.17197409E-07
  0.96619490E-08  0.79450233E-08  0.10590493E-07  0.18492587E-08  0.22403574E-07
 -0.15128454E-07 -0.40601192E-07 -0.62838291E-08  0.34513011E-07 -0.17104510E-07
 -0.12791777E-08  0.88304429E-08  0.98383056E-08  0.23084961E-07 -0.70519047E-08
 -0.23168625E-07 -0.13623192E-07  0.82785907E-08  0.12969621E-07 -0.21163015E-08
  0.12443810E-07  0.28815611E-08 -0.21421872E-07 -0.20245366E-07  0.21241193E-07
 -0.41335576E-10 -0.70890707E-08  0.16387448E-07  0.51114053E-08  0.14106357E-07
  0.10246393E-07 -0.27475156E-08 -0.67879106E-09 -0.37461703E-07 -0.28991742E-08
  0.26141120E-07  0.26637555E-08  0.30317788E-08 -0.50915031E-07  0.15023437E-07
  0.10470486E-07  0.49657253E-08  0.61263102E-08  0.32561012E-08 -0.75332059E-08
  0.71384582E-09  0.10691750E-07 -0.22154841E-08 -0.27748980E-07  0.87915115E-08
 -0.53919442E-09  0.22150703E-07  0.10473834E-08 -0.22739375E-07 -0.32310974E-07
 -0.12868409E-07  0.38855009E-07  0.28509718E-07 -0.49031149E-09 -0.77561561E-09
  0.18095155E-07 -0.32423828E-08 -0.17062880E-07  0.16594269E-07 -0.42167778E-08
  0.11346424E-08 -0.15483736E-08  0.86247830E-08 -0.73195076E-08 -0.25551672E-07

 -0.34810331E-08  0.59719180E-08 -0.80502258E-09 -0.99246847E-09  0.43037145E-09
 -0.34419919E-09  0.28342375E-09 -0.12905686E-08  0.13969738E-09 -0.39061380E-08
  0.92385056E-08  0.51551496E-09 -0.76193962E-09  0.20094080E-09 -0.50275801E-09
  0.17113317E-08 -0.85336752E-09 -0.35634493E-09  0.27545978E-08  0.83284518E-08
  0.13108167E-08  0.14056222E-08 -0.53703175E-09  0.61450528E-10  0.96866248E-09
 -0.14656564E-09  0.38289373E-09  0.11897395E-08  0.12108763E-07  0.11669480E-08
 -0.27659908E-08  0.10281331E-08  0.27961956E-09  0.35737786E-09  0.68266973E-09
 -0.17285848E-09 -0.11413610E-08  0.89103366E-08  0.18890266E-08  0.89907739E-09
  0.69019790E-10 -0.29512813E-10  0.77469060E-10 -0.12148738E-08  0.45471562E-09
  0.58429586E-08  0.10833751E-07  0.23478644E-09 -0.18787749E-09 -0.54590378E-09
 -0.75888658E-10  0.54750516E-09  0.77203999E-10  0.54485663E-09  0.24914084E-08
  0.66228791E-08  0.48507015E-09  0.20427499E-09 -0.28935242E-09  0.22539200E-09
 -0.15634498E-09  0.20846213E-08 -0.82463701E-09 -0.34411260E-08  0.96536094E-08
 -0.94914239E-10 -0.22290843E-08 -0.17009687E-09  0.85181492E-09 -0.19370877E-09
 -0.25787167E-10  0.50645554E-09 -0.12923553E-08  0.89368243E-08  0.20301079E-08
 -0.16652413E-08 -0.64664673E-09  0.43494153E-09 -0.50325094E-10  0.55174977E-09
  0.57831895E-09  0.10910451E-06  0.11665881E-07  0.19962094E-08 -0.14182340E-08
 -0.46722830E-09  0.86878494E-09  0.97037183E-09 -0.28377576E-09  0.20801904E-09
  0.39216294E-08  0.83827762E-08 -0.46311164E-09  0.14724811E-08 -0.66335440E-09
 -0.69844019E-09  0.22396859E-08  0.61626286E-09  0.46513583E-09  0.31450229E-08
  0.87563524E-08 -0.16179762E-08 -0.34836413E-09 -0.40090119E-09 -0.24511879E-09
  0.63178345E-10 -0.27018574E-09  0.20581681E-10 -0.11541961E-08  0.10449711E-07
 -0.11371281E-08  0.16259545E-08 -0.96660681E-10 -0.19265367E-09  0.63628236E-09
 -0.71332885E-09  0.28122321E-09 -0.21516350E-08  0.10429208E-07 -0.14997805E-08
  0.14289187E-08 -0.43621313E-10 -0.49689796E-09  0.19674978E-08  0.94163592E-09
 -0.80010835E-09 -0.21197002E-08  0.82923461E-08  0.91360150E-09  0.86375422E-09
 -0.67839135E-10 -0.81497407E-09  0.16520584E-08  0.73477757E-10  0.70367976E-09
 -0.13407903E-08  0.16463297E-07 -0.44591486E-07 -0.16663424E-06 -0.30296086E-08
  0.39937232E-07  0.73525558E-07  0.47023810E-07 -0.59300381E-08 -0.14451233E-06
 -0.27642986E-07  0.49973423E-08  0.52506694E-07  0.42733461E-08 -0.17702394E-07
  0.32664875E-07  0.99352181E-09 -0.39534984E-07  0.51956021E-07 -0.13652079E-06
  0.19332395E-08  0.60186646E-07  0.61455122E-07  0.29591950E-07 -0.17059565E-06
  0.39476238E-07  0.40463084E-07 -0.33804158E-07 -0.45157399E-07 -0.19742267E-07
  0.18976846E-08  0.21413692E-08  0.15848467E-07  0.63148115E-07  0.21418734E-08
  0.19836562E-07  0.28270464E-07  0.51260863E-07  0.56716236E-07 -0.89809769E-07
 -0.44777581E-08  0.64228789E-07 -0.67133147E-07 -0.10534556E-06 -0.47836202E-07
  0.41024078E-07 -0.46487761E-07 -0.48952915E-07  0.13417201E-07  0.27434496E-07
  0.10468196E-08 -0.12067972E-07 -0.27338216E-07 -0.10008849E-07  0.27866096E-08
  0.61216258E-07 -0.14440083E-07  0.10275255E-06 -0.16117362E-07  0.52304067E-07
 -0.62809759E-07  0.22312396E-07 -0.84559636E-08  0.96141968E-08 -0.10750492E-07
 -0.10260240E-06 -0.26421149E-07 -0.16043030E-07  0.21397487E-07 -0.25159913E-07
 -0.59913113E-07 -0.94482739E-08  0.24933059E-07 -0.44292868E-07 -0.11660154E-06
 -0.15760956E-07  0.28573056E-07 -0.13667099E-07 -0.61117480E-08 -0.81171997E-07
  0.88018525E-07 -0.46477400E-07  0.43330560E-07  0.23696564E-07 -0.11017556E-06
  0.33918417E-07  0.13622200E-07  0.92319526E-07 -0.82167927E-07  0.20384746E-07

  0.66707346E-09  0.21823377E-05 -0.13193525E-08  0.37964575E-08 -0.10958389E-08
  0.32578248E-08 -0.55214903E-08 -0.10118313E-08 -0.21564426E-08  0.17351991E-08
  0.21669914E-05 -0.55371104E-08  0.44806272E-08 -0.89607747E-08  0.19103501E-08
 -0.18180640E-08  0.14826635E-08  0.20699554E-08 -0.25152640E-08  0.21836472E-05
  0.47933037E-08  0.13944112E-08  0.95699895E-08 -0.10177779E-08  0.50384721E-08
  0.69741057E-09  0.90954567E-09  0.74979845E-08  0.21640560E-05  0.48339078E-08
 -0.15849742E-09  0.49227191E-08  0.73377859E-09  0.50455412E-08  0.20598158E-08
  0.77540493E-09 -0.32244250E-08  0.21525525E-05  0.76494315E-08  0.35368259E-08
 -0.36754650E-08  0.24194957E-09 -0.55675000E-09  0.18580921E-08  0.33233093E-09
 -0.22657635E-08  0.21480079E-05  0.57698113E-09  0.44247836E-09  0.34345436E-08
  0.19446349E-08  0.27642081E-09 -0.30795039E-08  0.48348860E-08  0.10281033E-07
  0.21383068E-05 -0.38581498E-08 -0.85075912E-09  0.17514770E-08  0.14132216E-08
 -0.18874261E-08 -0.11900120E-08  0.38280306E-08  0.46163881E-08  0.21700233E-05
  0.80572113E-08 -0.53448133E-08  0.10881748E-07  0.15238306E-08 -0.19792859E-08
 -0.69109363E-10  0.74730093E-10 -0.92150394E-08  0.21401573E-05 -0.88629313E-08
  0.33277252E-08 -0.60932426E-08  0.17349172E-08 -0.20788542E-08  0.40370171E-10
  0.97152546E-09  0.11665881E-07  0.22847024E-05  0.31044772E-08  0.53114890E-08
 -0.35699034E-08 -0.26201779E-08  0.56130095E-08  0.42069827E-09 -0.12791434E-08
 -0.21918518E-08  0.21912701E-05  0.10814203E-07 -0.45239297E-09  0.36495734E-08
  0.34774751E-08 -0.34836442E-08  0.78117409E-09 -0.48664149E-09  0.12480850E-07
  0.21620527E-05 -0.14668850E-08 -0.37434368E-08  0.10661488E-07  0.10957529E-08
 -0.84327010E-10 -0.28524921E-08  0.33511763E-08  0.98434699E-09  0.21638144E-05
 -0.16712069E-08  0.52140276E-08 -0.89265765E-08  0.35636478E-09 -0.30195679E-08
  0.15323337E-08 -0.37948838E-08  0.12440122E-08  0.21686984E-05 -0.21231757E-08
  0.36593720E-08  0.77416591E-09  0.17742418E-08  0.12944248E-09 -0.29725284E-08
  0.21008223E-08  0.21351368E-08  0.21697044E-05 -0.66853808E-08  0.36223327E-08
 -0.70880229E-08  0.17774609E-08  0.94895492E-09 -0.51567042E-09 -0.20714398E-08
 -0.53035649E-06 -0.98296407E-05  0.15673689E-05  0.19555140E-07  0.17220661E-05
 -0.32964022E-07  0.13212782E-06 -0.36173862E-07  0.11571406E-06  0.16846286E-05
 -0.21520065E-05 -0.53939124E-06  0.13879398E-06  0.16729597E-06  0.84540075E-07
  0.53238834E-06 -0.43858547E-06 -0.66805422E-07  0.18370415E-05 -0.32924273E-05
 -0.21553538E-06  0.59376937E-06 -0.53189791E-06 -0.46962456E-07  0.10430595E-06
  0.69970655E-06 -0.11872699E-05  0.35096795E-06 -0.71858470E-06  0.15069990E-07
 -0.52855989E-07 -0.59938882E-06  0.20978823E-06 -0.32476052E-06  0.42088511E-06
 -0.39062357E-06  0.13767092E-05 -0.34278162E-05 -0.13103279E-06 -0.57094849E-06
  0.34503627E-06  0.46492980E-06 -0.62052410E-06 -0.40404013E-06 -0.40580853E-06
  0.18773790E-06 -0.24041259E-05  0.54846539E-06  0.33171426E-06 -0.83809034E-06
  0.27919903E-06  0.78472690E-06 -0.16603896E-06  0.32893769E-06  0.18347094E-05
 -0.36165629E-05  0.47332989E-06  0.83022012E-07 -0.93397620E-06  0.63995086E-06
 -0.13495874E-06  0.19475826E-06  0.54247123E-06  0.12390666E-05 -0.22253033E-05
 -0.42029952E-06 -0.24354999E-06 -0.64074112E-06 -0.35766288E-08  0.18607208E-06
  0.67789816E-07 -0.47547549E-06  0.86298496E-06 -0.30499651E-05 -0.67321043E-06
 -0.33025910E-06  0.58572891E-07  0.63148143E-06  0.48690175E-06 -0.45142056E-06
  0.91799329E-07  0.49629890E-07 -0.18698897E-05  0.41705738E-06 -0.96889799E-07
  0.61384603E-06  0.28132043E-06 -0.66154627E-06  0.81534839E-06 -0.10173516E-05

 -0.12458173E-09 -0.52079704E-08 -0.24473075E-08 -0.55919962E-09  0.84961526E-09
 -0.20756194E-08  0.77629407E-10 -0.53258762E-09  0.13468362E-09  0.80394739E-09
  0.37028035E-09 -0.25720734E-08 -0.12352966E-08  0.36142906E-09 -0.98446514E-10
 -0.12260914E-09 -0.60799279E-09 -0.12551398E-08  0.14572363E-08 -0.26205987E-08
  0.27426846E-08 -0.10689509E-09 -0.97268233E-10 -0.79371002E-10  0.31683647E-09
  0.69041015E-09  0.58560241E-09  0.38120017E-10 -0.34999986E-08 -0.34825391E-08
 -0.74464010E-10 -0.51416182E-09  0.57162464E-09  0.15587672E-09  0.30040282E-11
 -0.59057535E-09  0.13083748E-08 -0.30569327E-08 -0.32877231E-08 -0.51241302E-09
 -0.55429597E-09 -0.18453005E-09  0.13304447E-09  0.46526659E-09  0.91950280E-09
  0.82217297E-09 -0.43869549E-08  0.31417031E-09  0.10969969E-09  0.86188693E-09
 -0.64238649E-09  0.32410358E-09 -0.42183874E-09  0.38273265E-09  0.50963712E-09
 -0.19898663E-08 -0.16210986E-08  0.12690630E-08 -0.36803183E-09  0.60367626E-09
 -0.80164587E-09  0.20839257E-09 -0.52864683E-09 -0.62038188E-09 -0.49378148E-08
 -0.22649296E-08 -0.63171222E-09  0.46750764E-09  0.61805249E-09  0.48152926E-09
  0.27886029E-09 -0.54672083E-09  0.14072897E-08 -0.45883300E-08 -0.31407172E-09
  0.36752668E-10 -0.50983269E-09  0.68837495E-09  0.50135578E-09 -0.30388951E-09
 -0.95556835E-09  0.19962094E-08  0.31044772E-08  0.94737460E-07 -0.17492764E-09
 -0.35109090E-09 -0.16683061E-09  0.40077906E-09  0.33642200E-09  0.52388553E-09
 -0.53876400E-09 -0.33182468E-08  0.22784553E-08  0.49949832E-09 -0.18525553E-09
  0.22810687E-09  0.47497941E-09 -0.67626240E-09  0.11650940E-08 -0.16588180E-08
 -0.22990856E-08  0.16417598E-08 -0.42667748E-09  0.70126172E-09 -0.39825421E-09
 -0.18112607E-09 -0.63210089E-09  0.10441815E-08 -0.17785106E-08 -0.25388164E-08
 -0.27466935E-08  0.29753047E-11 -0.88957555E-09 -0.45058472E-09  0.57596561E-09
  0.79777126E-09  0.15411065E-09 -0.20987644E-08 -0.25726270E-08  0.20081674E-08
  0.52638669E-10 -0.56855205E-10  0.86480748E-09 -0.54293933E-09  0.14929431E-09
  0.95415392E-09  0.15055914E-08 -0.38842749E-08  0.25998751E-09  0.95428352E-10
 -0.17877675E-09 -0.13636682E-09  0.12135163E-08 -0.59294702E-09  0.87770502E-09
 -0.20985908E-07  0.25058015E-07  0.41912939E-07 -0.20859020E-08  0.72911348E-07
  0.29793586E-07  0.26782075E-08 -0.63120058E-07 -0.33611341E-07  0.47261223E-08
 -0.10773883E-06  0.54104965E-08  0.21877194E-07  0.13941155E-07 -0.10354666E-07
 -0.31311087E-07  0.17500077E-07 -0.41819784E-08  0.24429978E-07 -0.44380094E-07
  0.21801430E-07  0.34350811E-07  0.11280299E-07 -0.54522658E-07  0.49580482E-07
  0.20936468E-07 -0.15647634E-07 -0.35718297E-07 -0.22963302E-08  0.45893271E-07
 -0.38769347E-07  0.16633296E-07  0.10355946E-06 -0.80386002E-08  0.37079175E-08
  0.83508542E-07  0.10999334E-06  0.44086795E-07 -0.87977318E-07 -0.18554564E-07
  0.24735696E-07 -0.13367668E-06 -0.37931238E-07  0.68022745E-07 -0.40973086E-08
 -0.71443293E-07  0.11460574E-06 -0.16032263E-07 -0.21347477E-07  0.43103444E-07
  0.24145994E-07  0.40008708E-08 -0.82703728E-08 -0.22475253E-07 -0.47037561E-07
  0.34653943E-09 -0.11288268E-06  0.28085003E-07  0.27600313E-07 -0.74917661E-07
 -0.10431296E-07  0.73203704E-07 -0.23026543E-08 -0.12813031E-06  0.37729867E-07
  0.14947085E-06 -0.75854769E-07 -0.63747947E-08  0.10745629E-06 -0.42593887E-08
  0.16902431E-07  0.27936794E-07 -0.10849742E-06 -0.22604031E-07  0.42830315E-07
 -0.11248741E-07  0.49758066E-08 -0.13581311E-06  0.60596667E-07 -0.28647530E-07
  0.67406951E-07  0.27244679E-07 -0.33809084E-08 -0.81057691E-07 -0.28977102E-07
 -0.60391773E-08 -0.17085648E-07  0.49328646E-07  0.29623981E-08  0.12908104E-06

 -0.50011379E-09  0.61629733E-08  0.20928425E-09 -0.13873042E-08  0.58726087E-09
  0.11678754E-08 -0.34438256E-09  0.15456329E-09  0.35854259E-09  0.82838097E-09
  0.68901430E-08  0.35476298E-10 -0.83292030E-10  0.90892472E-09  0.47647639E-09
 -0.10104118E-08  0.49607842E-09 -0.56866606E-10  0.65382977E-09  0.54201406E-08
 -0.34090180E-09 -0.95429435E-09  0.13933426E-08  0.42368274E-09 -0.28743000E-09
 -0.28266599E-09 -0.53983152E-10  0.22035340E-08  0.58549045E-08  0.96032720E-10
  0.18783861E-08  0.41031749E-09  0.53818053E-09 -0.30423134E-09 -0.24872699E-09
  0.17715377E-09 -0.11801106E-09  0.70347323E-08 -0.78415012E-09 -0.11476164E-08
  0.83189436E-09  0.92473286E-09  0.40429067E-10 -0.22592729E-09 -0.38383054E-09
  0.33545114E-08  0.59421799E-08  0.99425281E-09  0.17718094E-09  0.84773171E-09
  0.35663293E-09 -0.58525959E-09 -0.52870584E-10 -0.27214188E-09 -0.90124005E-09
  0.50721931E-08 -0.26160093E-09  0.44277831E-09  0.25476376E-09  0.42125522E-09
  0.26444763E-09 -0.49746386E-09  0.56293836E-10 -0.21328967E-08  0.77616871E-08
 -0.36632525E-09 -0.70589523E-09  0.56671705E-09  0.69415126E-09 -0.13845326E-10
  0.23074431E-09  0.16545234E-09  0.10258694E-09  0.61769375E-08  0.59972910E-09
 -0.53175672E-09  0.71273036E-09  0.54192056E-09 -0.92761976E-09  0.34940777E-09
 -0.95717176E-10 -0.14182340E-08  0.53114890E-08 -0.17492764E-09  0.37584403E-07
 -0.87935000E-08 -0.78340964E-08 -0.11105790E-08 -0.63885602E-09 -0.44037389E-09
 -0.64138449E-12  0.60730566E-08 -0.83530777E-09 -0.13069971E-08  0.59734741E-09
  0.10398474E-08  0.25566048E-09 -0.26094201E-09 -0.34872135E-09  0.21910108E-08
  0.59662862E-08  0.19287192E-08  0.15166873E-08  0.41446345E-09  0.10789478E-09
  0.60977287E-09  0.27696766E-09  0.60707743E-10  0.58818489E-09  0.49919230E-08
 -0.89789440E-09 -0.16441148E-09  0.53957781E-09  0.40800981E-09 -0.16657867E-09
 -0.45614338E-10 -0.31727907E-09  0.15481192E-08  0.60672243E-08 -0.18578797E-10
 -0.16485057E-08  0.88044624E-09  0.97975539E-09  0.16726458E-09  0.33241746E-09
 -0.99130208E-10  0.78134245E-10  0.79446682E-08  0.86330563E-09 -0.15711069E-09
  0.26163702E-09  0.10478550E-08  0.57218671E-09  0.51981724E-09 -0.57315524E-09
 -0.82305047E-07 -0.12027560E-07 -0.49482770E-08  0.76056812E-07  0.71895786E-08
 -0.42029629E-07 -0.48309440E-07 -0.20648041E-07 -0.61600588E-08  0.68128143E-07
 -0.24367902E-07  0.15079444E-07 -0.22580405E-07  0.32371356E-07  0.73585910E-08
 -0.23039884E-07 -0.25859865E-07  0.16106369E-07 -0.28945417E-07  0.93877517E-08
 -0.18014392E-07 -0.20727845E-07 -0.11602896E-07  0.16608645E-07  0.21892877E-07
  0.18094387E-08 -0.15840663E-07  0.17608473E-08 -0.27559343E-07 -0.11887140E-07
 -0.41633340E-07  0.41468366E-07  0.15797166E-08  0.19573979E-07 -0.23090865E-07
 -0.27242091E-07  0.60044281E-07  0.33473159E-08 -0.16473544E-07 -0.38062077E-07
  0.54293756E-07  0.11667584E-08  0.71641242E-08 -0.65518462E-08 -0.16019033E-07
 -0.11940429E-07  0.58252807E-08  0.70498332E-08 -0.10775938E-07  0.14229240E-07
  0.39995156E-09 -0.57351729E-07 -0.15457672E-07  0.14133957E-07  0.32718732E-07
  0.11615997E-07  0.71836882E-08  0.73621589E-08  0.24485586E-07 -0.10400425E-07
 -0.28071144E-07 -0.43956019E-07 -0.21662057E-07  0.22668715E-08  0.72242084E-08
  0.47422095E-08 -0.24582757E-07 -0.33169383E-08 -0.50137361E-09  0.52376913E-08
 -0.90350750E-08  0.15538685E-07 -0.21869066E-07 -0.26665231E-07  0.47250648E-08
 -0.21279137E-07 -0.16287286E-07  0.19154246E-08 -0.32190044E-08  0.11005502E-07
  0.28332383E-08  0.86997091E-07 -0.39451056E-07  0.37640762E-08 -0.18608546E-07
 -0.28905145E-07  0.20412257E-07  0.36530893E-07 -0.33422487E-08 -0.48561018E-08

 -0.24885507E-09 -0.35052742E-08 -0.74301725E-10  0.73584364E-09 -0.23867573E-09
  0.97027318E-09 -0.32955398E-09 -0.94719442E-10 -0.55533420E-09 -0.10767271E-09
 -0.43792408E-08  0.88554491E-10  0.83155277E-09 -0.59150538E-09  0.63787943E-09
  0.20069923E-10  0.18995607E-10  0.21749400E-09  0.24132805E-09 -0.26646673E-08
  0.41707516E-09  0.14558208E-08 -0.14938224E-08  0.64541601E-09  0.29636365E-09
  0.28071456E-09  0.19031258E-09  0.92241565E-11 -0.21464497E-08  0.56449934E-09
  0.36410564E-09 -0.65669337E-09  0.58211902E-09  0.52910080E-09  0.23690052E-09
  0.40729906E-09 -0.87622534E-10 -0.25331408E-08  0.95215736E-09  0.74001141E-09
 -0.11898182E-08  0.43820733E-09  0.45840713E-09 -0.11380899E-09  0.18948308E-09
 -0.61003649E-09 -0.13948473E-08  0.59917872E-09  0.78924888E-09 -0.70945991E-09
  0.63807610E-09 -0.52278646E-09 -0.26643334E-09  0.25356180E-09  0.18063208E-09
 -0.12896202E-08 -0.97477845E-09  0.29058526E-09 -0.74851611E-09  0.43736811E-09
 -0.78369209E-09  0.24345979E-09  0.22137821E-09  0.14824672E-09 -0.21343035E-08
 -0.67930911E-10  0.84528317E-09 -0.14652325E-08  0.49874917E-09  0.14858014E-09
  0.70422117E-11  0.25396587E-09  0.33016357E-09 -0.38191863E-08 -0.66129042E-09
  0.72885976E-09 -0.15975861E-08  0.70078153E-09 -0.87650746E-10 -0.90546690E-10
 -0.33723637E-09 -0.46722830E-09 -0.35699034E-08 -0.35109090E-09 -0.87935000E-08
  0.35327472E-07 -0.79980393E-08 -0.42530188E-09 -0.88074261E-09  0.21291978E-08
 -0.60616161E-09  0.50111449E-09 -0.97316215E-10  0.67497081E-09 -0.82079672E-09
  0.38960762E-09  0.46985159E-09 -0.75037485E-11  0.16174727E-09 -0.76275972E-09
 -0.36637204E-08 -0.55446033E-09  0.33454579E-09 -0.14254025E-08  0.10862296E-08
 -0.23784990E-12 -0.30064588E-09  0.30679298E-09 -0.13024740E-09 -0.29748116E-08
 -0.12500092E-08  0.29146457E-09 -0.20037523E-08  0.13835393E-08  0.69551754E-09
  0.89575172E-10 -0.42018814E-09  0.26389201E-09 -0.36257574E-08 -0.86886660E-09
  0.86417617E-09 -0.35283320E-09  0.47014353E-09 -0.51460635E-10  0.14537687E-10
  0.37671260E-09  0.33835244E-09 -0.53947014E-08  0.12299619E-08  0.34402099E-09
  0.35970704E-09  0.77872746E-09  0.70529701E-10 -0.19857504E-09 -0.20390847E-10
  0.20066267E-07 -0.49837413E-07 -0.24496904E-07  0.79535954E-08 -0.10348033E-06
  0.10935160E-07 -0.14643589E-07  0.13034527E-07  0.50161535E-07 -0.27158198E-07
  0.48960480E-07 -0.21722928E-08  0.10097104E-07 -0.45087686E-07  0.15582481E-08
 -0.26368479E-07  0.14343550E-07 -0.15564438E-07 -0.44448801E-08  0.17824073E-07
  0.75986897E-08  0.18851478E-07 -0.15822806E-08  0.21845685E-07 -0.34205061E-07
 -0.58628620E-08  0.10642605E-07  0.20838595E-08  0.47435328E-08 -0.90713734E-08
  0.23693428E-07 -0.84007547E-07  0.11094393E-07 -0.50403957E-08  0.28435903E-08
 -0.10032591E-07 -0.15606833E-07 -0.16141472E-07 -0.12673717E-08  0.53775795E-07
 -0.78024593E-07 -0.15008735E-07  0.30605837E-07 -0.35545359E-08  0.11038513E-08
  0.19191549E-07  0.52104439E-07 -0.18175330E-08 -0.10556302E-07 -0.10280428E-07
  0.49573707E-08 -0.12648186E-07 -0.11962663E-07 -0.72229124E-08  0.84318178E-08
 -0.19471725E-07  0.29145411E-07  0.31647349E-07 -0.70800426E-07 -0.18610382E-08
  0.26328838E-07 -0.16477305E-07  0.72516800E-08 -0.25421481E-07  0.13926281E-07
  0.57741275E-08  0.15654842E-07 -0.11796412E-07  0.91266528E-08 -0.34021574E-07
  0.66380072E-09  0.40020531E-07 -0.36787480E-08 -0.23717493E-07 -0.15046534E-07
 -0.60025410E-08  0.11032183E-07 -0.31869411E-08 -0.12744497E-07  0.10068101E-07
  0.73390114E-09  0.51208507E-08  0.14203808E-07 -0.50411046E-08 -0.29829340E-07
  0.88819095E-07  0.40122656E-08 -0.11370445E-08 -0.95559134E-08 -0.19180840E-07

  0.41652134E-09 -0.20744652E-08  0.96252740E-09  0.12471937E-08  0.92087040E-09
 -0.16646541E-08 -0.37672927E-10  0.59190565E-09 -0.29979537E-09 -0.38183778E-10
 -0.74750289E-09  0.24131332E-10  0.44541004E-09  0.94556991E-09 -0.33366505E-09
  0.64658123E-10 -0.29492620E-09  0.87888253E-10 -0.15612340E-11 -0.19182942E-08
 -0.10642300E-09  0.48145938E-09  0.69521846E-09 -0.78709433E-09  0.54128937E-10
 -0.30049600E-09 -0.18044223E-09  0.15559317E-09 -0.18047123E-08 -0.49881931E-09
  0.36273933E-09  0.58500222E-09 -0.45294845E-09  0.30229920E-10 -0.49816194E-09
  0.24966633E-09  0.63598126E-10 -0.12793560E-08  0.71840309E-10  0.77563119E-09
  0.45755517E-09 -0.68075695E-09 -0.24419849E-09 -0.18800539E-09  0.20007028E-09
 -0.92855056E-10 -0.13203221E-08 -0.18473920E-08  0.42610043E-09  0.67373785E-09
 -0.99553237E-10  0.81134819E-11  0.19230086E-09  0.98859170E-10  0.39961315E-09
 -0.99271112E-09  0.25466946E-08  0.31029301E-09  0.44910512E-09 -0.10533795E-09
  0.32109585E-09 -0.25210400E-09 -0.30635095E-09  0.26607129E-09 -0.18242481E-08
  0.37517564E-09  0.66875760E-09  0.53656600E-09 -0.59357614E-09 -0.17405724E-09
 -0.50226316E-11 -0.68728967E-09 -0.46672365E-09 -0.16769751E-08  0.42957834E-09
  0.53145625E-09  0.84695135E-09 -0.57208463E-09  0.50916902E-09 -0.40904096E-09
  0.21837638E-09  0.86878494E-09 -0.26201779E-08 -0.16683061E-09 -0.78340964E-08
 -0.79980393E-08  0.28364570E-07  0.34191620E-09  0.23528735E-08  0.13242856E-08
 -0.17562109E-10 -0.14272168E-08  0.16556842E-08  0.99348518E-09  0.32866046E-09
 -0.11868070E-08 -0.18336817E-09  0.10376818E-09  0.51123572E-09  0.10408731E-08
 -0.20107421E-08 -0.21593320E-08  0.55583736E-10  0.70814335E-09  0.16550458E-09
  0.14060314E-09  0.92101925E-10 -0.42191178E-09  0.49143414E-09 -0.64152085E-09
  0.19920001E-08  0.56320446E-09  0.14609402E-08  0.11247887E-09 -0.86586198E-09
 -0.23618557E-09  0.98625679E-09 -0.62859779E-09 -0.97464998E-09  0.30545596E-09
  0.12509091E-08  0.25092241E-09 -0.14300864E-08 -0.85755342E-10 -0.11383071E-09
  0.35410243E-09 -0.23154495E-09 -0.17357076E-08 -0.19434351E-08  0.93659379E-09
  0.55979001E-09 -0.11240591E-08 -0.76117647E-10  0.38638896E-09  0.60485389E-09
  0.19572105E-07  0.41496568E-07 -0.24481269E-07 -0.46812320E-07 -0.15611237E-07
  0.53639498E-07  0.20059562E-07  0.26127594E-07  0.18584558E-07 -0.90195657E-08
 -0.27888464E-07 -0.16555212E-07  0.90108222E-08  0.40162025E-08  0.15970659E-07
  0.10074927E-07  0.40913476E-09  0.98330496E-08  0.81103035E-08  0.11925879E-08
  0.91399891E-08 -0.19220199E-08  0.21763974E-07 -0.22951980E-07  0.92939005E-08
  0.24729180E-08  0.16543699E-07 -0.59324768E-08  0.12631658E-07  0.23355837E-07
  0.93102594E-08  0.10007422E-08 -0.34552878E-07 -0.47160029E-08 -0.21663494E-08
  0.18077881E-07 -0.18505258E-07 -0.22852063E-08  0.10911301E-07 -0.16585190E-08
 -0.14848247E-07  0.11545169E-07  0.13605594E-07 -0.16055452E-07  0.28085962E-07
 -0.10221240E-07  0.59698426E-08 -0.36403129E-07  0.63696898E-08 -0.38804271E-08
 -0.11138841E-07  0.19540740E-07  0.11774384E-07 -0.32464871E-07 -0.16001211E-07
 -0.66807637E-08  0.35295280E-09 -0.23962282E-07  0.55698315E-08  0.33893751E-08
  0.12055643E-07  0.24137692E-08  0.11187687E-07  0.75306139E-08  0.21037838E-07
 -0.10798837E-07 -0.68674388E-08 -0.11795819E-07  0.42983048E-07  0.89723412E-08
  0.20520593E-07  0.48332166E-08  0.15018328E-07 -0.20415326E-07 -0.14455980E-07
 -0.21281314E-08 -0.14830148E-07  0.16176947E-07  0.19689378E-07  0.57153017E-08
 -0.74668976E-08 -0.17178581E-07 -0.20101314E-08 -0.19421819E-08  0.20839212E-07
 -0.19001259E-08 -0.10539586E-07  0.40209189E-08  0.18456504E-07  0.22305097E-07

 -0.12900134E-09  0.48378336E-08 -0.17472571E-09  0.78466915E-09  0.39700977E-09
 -0.10555525E-09 -0.14229483E-09  0.34401317E-09  0.27567746E-10  0.30780850E-09
  0.36001676E-08  0.11855306E-09 -0.54485477E-09 -0.26760582E-09 -0.15875951E-10
  0.75223126E-09 -0.26203042E-10  0.18690295E-09  0.37760336E-09  0.49248570E-08
  0.19277027E-09  0.54250611E-10 -0.47366128E-09  0.20150068E-09 -0.58055832E-10
  0.14486026E-09 -0.23349397E-09 -0.63577303E-09  0.70602562E-08  0.73787215E-11
 -0.12489608E-09  0.19406816E-09 -0.69486663E-10 -0.12960546E-09 -0.18344088E-09
  0.16698397E-09  0.57583675E-09  0.45389981E-08  0.22720158E-09  0.31681755E-09
  0.12221898E-09 -0.41767276E-09  0.49553566E-09 -0.50980838E-09 -0.22096153E-09
  0.12694844E-08  0.42191663E-08  0.57448094E-09 -0.57733789E-09  0.10541765E-09
  0.81077804E-10 -0.25353005E-09  0.16355409E-09  0.14061409E-09  0.45511095E-09
  0.43169511E-08 -0.53659910E-09  0.25980430E-09 -0.22916864E-09 -0.97448131E-12
 -0.71696102E-09 -0.10807094E-09 -0.33259960E-10 -0.24673039E-09  0.52837379E-08
 -0.58868419E-10 -0.83128210E-09 -0.10874783E-09  0.26550271E-09 -0.26713788E-09
  0.61298468E-10  0.13300441E-09 -0.28790766E-08  0.52470032E-08 -0.18252896E-09
  0.60626632E-09  0.15062746E-09 -0.21011398E-09 -0.10264773E-09  0.18689739E-09
 -0.53680849E-10  0.97037183E-09  0.56130095E-08  0.40077906E-09 -0.11105790E-08
 -0.42530188E-09  0.34191620E-09  0.25184909E-07  0.11733310E-08 -0.37217854E-09
  0.93065532E-09  0.57091707E-08 -0.15336106E-09 -0.21270177E-10 -0.37382169E-09
 -0.16042089E-10  0.15911585E-09  0.69101000E-10 -0.22182238E-10  0.53063718E-09
  0.45442910E-08 -0.79236084E-10 -0.22163207E-09  0.39397456E-10 -0.21830940E-09
  0.25267233E-09 -0.13242240E-09  0.30482462E-09 -0.39136591E-09  0.45288333E-08
 -0.38623393E-09 -0.39915925E-09 -0.12038193E-09  0.68555269E-10  0.40752886E-09
 -0.29421093E-09  0.21732811E-09  0.18904412E-09  0.60524789E-08 -0.93595179E-09
 -0.23754533E-09 -0.51997887E-09  0.98515108E-10  0.13814837E-08 -0.39369893E-10
 -0.17128041E-09  0.18654630E-08  0.54137706E-08  0.63191047E-09 -0.24715130E-09
  0.70739612E-09  0.70050252E-10  0.32758824E-09 -0.39816512E-09 -0.44258376E-09
 -0.21963230E-08 -0.62469587E-07 -0.97401955E-08 -0.44427630E-07 -0.29065054E-07
  0.15850362E-07  0.11190581E-09  0.10392506E-07  0.21052987E-07 -0.13128758E-07
 -0.42989344E-09 -0.14942986E-07  0.14734785E-07  0.20929130E-07 -0.54873120E-08
 -0.19769574E-07  0.66371261E-08 -0.70601119E-09 -0.20660277E-07 -0.37104680E-07
 -0.75748225E-08 -0.19625761E-07  0.41446930E-07  0.47903174E-08 -0.30587823E-07
  0.13245205E-08  0.21046376E-07  0.22937270E-07 -0.15929842E-08  0.12834540E-07
  0.45942804E-08  0.26921500E-07 -0.46489962E-09  0.26404744E-07  0.11691231E-07
 -0.74356095E-08 -0.12433139E-07 -0.18108892E-08 -0.14768703E-07  0.14745996E-07
 -0.79247410E-08  0.29803826E-08 -0.39266576E-08  0.71303361E-08  0.15227587E-08
  0.64143854E-08  0.31098357E-07 -0.17264149E-07  0.21526901E-07  0.20085856E-07
 -0.12229233E-07  0.22296157E-07 -0.14751366E-07  0.34633832E-07 -0.26207181E-07
  0.11397512E-07  0.12650731E-07 -0.52765719E-07  0.92582836E-08  0.14391172E-07
 -0.61067637E-09  0.44695311E-08  0.12087471E-07  0.17987076E-07 -0.77528421E-08
  0.97401113E-08 -0.17493254E-07  0.13491563E-07 -0.88909401E-10 -0.45969852E-08
  0.31182972E-07  0.31421587E-07  0.15784729E-07 -0.26257208E-07  0.13685267E-10
 -0.11344147E-07  0.40184556E-07 -0.62175633E-08  0.39534544E-07  0.33664713E-08
  0.14694014E-07 -0.13695734E-07  0.19031690E-07  0.32725020E-08  0.29706699E-07
  0.57053364E-08 -0.14672779E-08  0.32780127E-07  0.26409447E-07 -0.13367095E-08

  0.42477434E-09  0.53537029E-09  0.50058935E-09  0.49650310E-09 -0.22843703E-09
  0.51408429E-09  0.32232026E-10 -0.67516707E-09 -0.13306716E-09  0.37752340E-09
  0.59901104E-09 -0.28686387E-09  0.62919050E-09 -0.53385300E-10 -0.27366310E-09
 -0.29377345E-10 -0.82488787E-09 -0.31849028E-09 -0.66621500E-09 -0.40326459E-09
 -0.11697337E-09 -0.35762796E-09  0.42350255E-09 -0.28907513E-09  0.69924155E-10
 -0.97471270E-09 -0.14011905E-09 -0.19415427E-09  0.63077553E-09  0.13028894E-08
 -0.31539332E-09  0.15295891E-09 -0.48555310E-09  0.36133222E-09 -0.16096607E-09
  0.14399182E-09 -0.22158255E-11  0.17966425E-09  0.17167568E-09 -0.26216627E-09
 -0.44627021E-10 -0.90013296E-10 -0.17477103E-09 -0.71695752E-09 -0.15844279E-09
  0.94685992E-09  0.70639421E-09  0.58124308E-09 -0.72967111E-10 -0.51134439E-10
  0.30313496E-09  0.14993230E-09 -0.42621410E-09 -0.34332959E-09  0.45039182E-09
  0.27799876E-09  0.61478428E-09 -0.56513469E-09  0.16224869E-09 -0.20191824E-09
  0.18090333E-10 -0.46357099E-09  0.26607248E-09 -0.12322648E-09  0.43893074E-09
 -0.38761551E-09 -0.13148861E-11 -0.85811263E-10  0.12053948E-09 -0.53400160E-10
 -0.56343795E-09 -0.88380612E-10  0.10622163E-08 -0.16539092E-10 -0.59725326E-09
  0.62578170E-09 -0.10020797E-09 -0.45615760E-09 -0.19871945E-09 -0.71087161E-09
  0.47171697E-09 -0.28377576E-09  0.42069827E-09  0.33642200E-09 -0.63885602E-09
 -0.88074261E-09  0.23528735E-08  0.11733310E-08  0.19144430E-07 -0.68034890E-10
 -0.62430606E-09  0.32165794E-09  0.22281895E-09 -0.23797845E-09  0.33099860E-11
  0.89703612E-10 -0.15670747E-09 -0.92869992E-09  0.26162356E-09  0.15445331E-08
 -0.17321977E-09  0.17787008E-08  0.18643671E-09 -0.21763500E-09  0.17218685E-09
  0.17958027E-09 -0.45545878E-10  0.41006327E-09 -0.10742158E-08  0.95409458E-10
  0.10568195E-08 -0.85032731E-10  0.76091003E-10 -0.93003674E-10 -0.20938464E-09
 -0.13114268E-09 -0.40835210E-09 -0.48162654E-09 -0.84761263E-09 -0.38705608E-09
  0.38029743E-09 -0.56007912E-10 -0.14423649E-09  0.30746574E-09 -0.11126311E-08
 -0.58193450E-10  0.72753935E-09  0.74156486E-10 -0.39832643E-10  0.66871716E-09
 -0.67869170E-10  0.20021905E-09 -0.46180802E-09 -0.16215370E-09  0.46141243E-09
  0.37227066E-08  0.18711225E-08 -0.12952324E-07 -0.16655686E-07 -0.10870043E-07
  0.35138725E-07  0.91471423E-08  0.11220603E-07  0.24858258E-07  0.46164887E-08
 -0.38962410E-08  0.12836680E-07 -0.19755195E-07 -0.57983837E-08 -0.33951470E-08
  0.15928910E-07  0.12975448E-07 -0.84410142E-08 -0.13497196E-07  0.80502839E-08
  0.28227276E-08  0.73084989E-08 -0.11918745E-07  0.51070820E-08 -0.65639342E-08
  0.13659363E-07 -0.26399872E-08 -0.13154189E-07  0.86441950E-08 -0.18087935E-07
 -0.67419045E-08  0.95052946E-08 -0.56609418E-08 -0.26473682E-07 -0.26704627E-07
  0.31626341E-08 -0.13264403E-07 -0.81230814E-08  0.94898779E-08 -0.27929191E-08
 -0.55763022E-09 -0.83332452E-08 -0.88047579E-09 -0.89413898E-08  0.11737152E-07
 -0.24022231E-07  0.53045521E-08 -0.15498368E-07 -0.19960695E-07 -0.88238465E-08
  0.14424624E-07 -0.83049816E-09 -0.10725415E-07 -0.85383579E-08  0.46766368E-08
 -0.61302507E-08  0.40412785E-09 -0.45821486E-07  0.90452108E-08  0.53714592E-08
 -0.10568826E-07 -0.10646411E-07  0.36825156E-08  0.88381787E-08 -0.47979636E-08
 -0.29355878E-08 -0.41557058E-08 -0.21345994E-08  0.13317352E-07  0.15287349E-07
  0.38693623E-07 -0.44657147E-08 -0.30982389E-08 -0.87027715E-08 -0.24459350E-08
 -0.48016038E-08  0.25201999E-08  0.74715246E-08  0.79772533E-08 -0.29615594E-07
  0.13600744E-07 -0.28136508E-07  0.49407239E-08  0.19774038E-07 -0.48100418E-08
  0.46732594E-08  0.78184015E-08  0.11600868E-08  0.15814224E-07  0.53094856E-08

 -0.30191086E-09 -0.21801091E-08  0.71103883E-09 -0.13385828E-09  0.42728494E-09
  0.71191983E-09 -0.52227521E-11  0.51018383E-09 -0.12419179E-09  0.34826285E-09
 -0.89501248E-09 -0.15108327E-09 -0.99433547E-10  0.27054524E-09  0.28671173E-09
  0.21351574E-09 -0.32382315E-09  0.87564062E-09  0.25078377E-09 -0.12606015E-08
  0.30432919E-09  0.47454242E-09 -0.42486783E-09 -0.31322321E-09 -0.36081090E-09
  0.11528616E-09  0.45297037E-10 -0.23123584E-09 -0.10596810E-08 -0.55713570E-09
 -0.23789673E-10 -0.92845463E-10 -0.75474379E-10  0.15783548E-09 -0.34415160E-10
  0.63471063E-09  0.17052260E-09 -0.23443192E-08  0.97967649E-09 -0.15457596E-09
 -0.64512235E-10  0.82739614E-10 -0.14520303E-09 -0.46006931E-09  0.59768574E-09
  0.64857138E-09 -0.10947151E-08  0.11650683E-09  0.16915747E-09 -0.19187399E-09
  0.24742560E-09  0.18809621E-09 -0.15956415E-09 -0.31058388E-09 -0.63680958E-09
 -0.26166595E-09 -0.23190715E-09 -0.11673373E-09  0.40007399E-09 -0.23401681E-10
 -0.17213996E-09 -0.25746894E-10  0.15665657E-09 -0.40558879E-10 -0.12674643E-08
  0.13333433E-09  0.17110963E-09 -0.10484249E-09 -0.21753046E-09  0.10218045E-09
 -0.65459285E-10  0.51271191E-09 -0.28087507E-09 -0.88794973E-09 -0.12414612E-08
 -0.12214952E-09  0.97598788E-09  0.98800895E-10 -0.17687623E-09 -0.27608075E-10
  0.13852109E-09  0.20801904E-09 -0.12791434E-08  0.52388553E-09 -0.44037389E-09
  0.21291978E-08  0.13242856E-08 -0.37217854E-09 -0.68034890E-10  0.21271809E-07
 -0.44571051E-09 -0.58790411E-09  0.11537363E-08 -0.67425013E-10  0.23792494E-09
  0.26682241E-09 -0.10391670E-10 -0.18811126E-09  0.38202867E-09  0.17568716E-09
 -0.19253985E-08  0.52208619E-09 -0.10491496E-09 -0.36092415E-09  0.51088406E-09
  0.44077126E-09 -0.29706471E-09 -0.88676193E-10 -0.35721694E-09 -0.28137200E-08
  0.55448088E-09 -0.12673866E-09 -0.77298358E-09  0.43430658E-09  0.28469961E-09
 -0.15047354E-10  0.39445078E-09 -0.71865010E-09 -0.14244717E-08  0.35307273E-09
  0.28503161E-10 -0.45609520E-09  0.28034521E-09 -0.48511585E-10 -0.77928231E-10
 -0.14117284E-09  0.63737980E-09 -0.24847812E-08 -0.44524855E-10 -0.33802127E-09
  0.48429958E-09 -0.16429785E-09 -0.37000652E-09  0.39467429E-09  0.75458135E-09
 -0.11101876E-07 -0.25817010E-07  0.33541428E-08  0.91705578E-08 -0.53466527E-07
  0.21159181E-07  0.14602546E-07 -0.62074486E-09 -0.28850359E-07 -0.25148333E-07
  0.12955571E-07 -0.13875402E-07 -0.50118158E-08  0.35968318E-07  0.12686979E-08
 -0.18332079E-07  0.61509916E-08 -0.13833705E-07 -0.47815484E-08  0.27274141E-07
  0.14936053E-07 -0.15734797E-07  0.34898977E-07  0.98562395E-08  0.15333659E-07
  0.11795120E-07 -0.94550071E-08  0.18935126E-07 -0.14920920E-07  0.10542030E-08
 -0.27550014E-08  0.33758620E-07 -0.85918199E-09 -0.18023627E-07  0.45156087E-08
 -0.46195803E-08 -0.34873577E-07 -0.12338130E-07 -0.74964677E-08  0.28260452E-07
 -0.10340015E-07 -0.95440451E-08 -0.32894288E-08 -0.98168880E-08 -0.90765320E-08
 -0.89673998E-08 -0.21179719E-08 -0.16524805E-07 -0.10082453E-07 -0.50200993E-07
 -0.27832045E-08  0.36581556E-07 -0.10737222E-07 -0.57128954E-07  0.20480564E-07
  0.90720658E-08  0.11501920E-07  0.27951060E-08  0.10618596E-07  0.54243677E-08
  0.14422173E-07 -0.12603913E-08  0.13788162E-07  0.17423579E-07 -0.14064828E-09
  0.33548920E-07  0.26705402E-07  0.10169175E-08  0.20926271E-07  0.25989637E-07
 -0.10002972E-07  0.34343060E-07  0.39541053E-08  0.14977145E-07  0.16507213E-07
 -0.70081726E-09 -0.10458254E-07 -0.25925494E-07  0.24272740E-07  0.17791190E-07
  0.18394488E-08  0.51897074E-09  0.12822695E-07  0.27669140E-07 -0.56078936E-08
  0.77222670E-09  0.30061425E-07  0.13850600E-07  0.14663499E-07 -0.21795510E-07

  0.16656404E-08 -0.14104247E-08  0.59489567E-09 -0.11781457E-09 -0.49254338E-09
  0.16966889E-09 -0.61684948E-09 -0.82769553E-09 -0.31371983E-09  0.18600398E-08
 -0.19849360E-08 -0.20722726E-08 -0.17660295E-08  0.86998502E-10  0.20985280E-10
 -0.10685758E-08 -0.58637365E-09  0.88629039E-09  0.67414416E-08 -0.15586918E-08
 -0.24058449E-09  0.84885919E-09  0.10440338E-09 -0.52970028E-09  0.82036231E-09
  0.41083247E-09  0.20493851E-09  0.39315066E-09 -0.74066636E-09  0.13773858E-08
 -0.17271281E-09  0.89884330E-09  0.59513872E-12 -0.25275057E-08 -0.13265053E-09
  0.56706454E-09  0.24418779E-09 -0.16539024E-08  0.77235580E-09  0.97572464E-09
  0.37278001E-09 -0.52616081E-09 -0.52857633E-10 -0.17771750E-09  0.37126286E-09
 -0.11851722E-08 -0.24004096E-08  0.85858994E-09 -0.21813072E-08  0.53060361E-09
  0.33146208E-09 -0.22682169E-09  0.70787516E-09 -0.37684899E-09  0.17908117E-08
  0.27621235E-09 -0.25827438E-08 -0.33520798E-08 -0.19908392E-09  0.44773766E-09
 -0.76364866E-09  0.14579752E-09  0.38525227E-09 -0.46410593E-08 -0.24022508E-08
  0.69327076E-09  0.28948068E-08  0.83668013E-09 -0.76637240E-10  0.45993074E-09
 -0.34099516E-09 -0.12085431E-08  0.39636460E-08 -0.17757029E-08  0.76142216E-09
 -0.25495008E-08  0.64882102E-10  0.49229130E-09  0.10075969E-08  0.68201517E-09
  0.46718775E-09  0.39216294E-08 -0.21918518E-08 -0.53876400E-09 -0.64138449E-12
 -0.60616161E-09 -0.17562109E-10  0.93065532E-09 -0.62430606E-09 -0.44571051E-09
  0.12784280E-06 -0.98005399E-08  0.16955511E-08 -0.61390999E-10  0.76744476E-09
 -0.22477483E-09 -0.24085988E-08 -0.14707987E-10 -0.66940886E-11 -0.21887654E-08
 -0.11379457E-08  0.56967675E-09  0.94231619E-10  0.25693022E-09 -0.16205494E-09
 -0.41820563E-09  0.96518810E-09  0.11881584E-09  0.18588410E-08  0.34219328E-08
 -0.14062138E-08 -0.11810092E-08 -0.57602830E-09  0.15968132E-09  0.56758124E-09
  0.40319148E-09 -0.66992318E-09  0.34888171E-08 -0.17697193E-08  0.15293128E-08
 -0.55640107E-09 -0.60917103E-10 -0.23708863E-09  0.76782180E-10  0.41230508E-09
 -0.45062313E-09  0.21838363E-10 -0.27674835E-09  0.87749286E-09  0.11325003E-08
 -0.10285668E-09  0.20777746E-09  0.46545191E-09  0.57805638E-10 -0.10826847E-09
 -0.14870948E-06  0.12400977E-06  0.32770391E-07  0.27677287E-07  0.25110323E-07
 -0.64864969E-07 -0.11667031E-06  0.93678420E-07  0.30083347E-07 -0.12623079E-06
 -0.37784109E-07 -0.22026087E-07  0.11068465E-06  0.59978449E-07 -0.10239220E-06
 -0.16740567E-06 -0.15009821E-06 -0.18795127E-08  0.11795922E-06 -0.84729169E-07
  0.57085928E-09  0.84861237E-07  0.44976220E-07  0.22626112E-07 -0.25081662E-07
 -0.97234265E-08  0.61472004E-07 -0.69493555E-07 -0.32037914E-07 -0.58718864E-07
  0.16598526E-06 -0.20130802E-07  0.55048889E-07  0.53808984E-07 -0.28486860E-07
  0.23243979E-08  0.11507689E-06  0.82227430E-07  0.11536678E-08  0.48745166E-07
  0.37644095E-07  0.27316036E-07 -0.29448848E-07  0.11562375E-06 -0.40776381E-07
  0.63316841E-07  0.29192051E-07 -0.45889083E-07  0.11189643E-06 -0.11363716E-07
 -0.93136748E-07 -0.42221103E-07 -0.13320591E-06 -0.25103874E-07 -0.50266481E-07
 -0.80879743E-07  0.70315544E-08  0.60402966E-07 -0.36099559E-07  0.19457979E-07
  0.79600984E-08 -0.22558441E-07 -0.45259448E-07 -0.22937236E-06  0.31463333E-07
 -0.13995284E-06  0.30194743E-06 -0.91403249E-07 -0.19324448E-08  0.10845719E-07
 -0.92835427E-07 -0.14260422E-07 -0.15900801E-06  0.84269149E-08 -0.93781329E-09
 -0.11191974E-06 -0.84086856E-08 -0.18926007E-07  0.43972615E-07 -0.99959414E-07
  0.61498439E-07  0.10970138E-06 -0.14482921E-07 -0.16460117E-07  0.30648911E-07
 -0.26625472E-07  0.85541484E-08  0.68566046E-07 -0.32359242E-07  0.24501808E-07

  0.39270161E-08  0.22164252E-05 -0.19919976E-08  0.43972718E-08  0.79011978E-10
  0.32106141E-08 -0.68884737E-08 -0.10325398E-08 -0.43880141E-08  0.28280858E-08
  0.22032965E-05 -0.92152265E-08  0.23838859E-08 -0.97730172E-08  0.28764259E-08
 -0.39768667E-08  0.21287524E-08  0.31609036E-08 -0.39040401E-08  0.22177483E-05
  0.55979541E-08  0.16325262E-08  0.89872487E-08 -0.64972924E-09  0.45011545E-08
  0.10312858E-08  0.11154462E-08  0.40072570E-08  0.22014605E-05  0.34202753E-08
  0.97182328E-09  0.43847864E-08  0.77712521E-09  0.47965960E-08  0.21324650E-08
  0.15750145E-08 -0.29469251E-08  0.21883979E-05  0.10216842E-07  0.25022977E-08
 -0.26148886E-08 -0.76151904E-09  0.10195592E-10  0.22835272E-08 -0.46632470E-09
 -0.14416247E-08  0.21855570E-05 -0.91543103E-09  0.19855064E-08  0.43596408E-08
  0.54359723E-09  0.97490614E-09 -0.38401602E-08  0.44989020E-08  0.11765451E-07
  0.21742883E-05 -0.60398804E-08 -0.21462052E-09 -0.43943860E-09  0.10853832E-08
 -0.31195087E-08 -0.90058255E-09  0.92309634E-09  0.35510909E-08  0.22019987E-05
  0.82696784E-08 -0.51826876E-08  0.84320032E-08  0.11947731E-09 -0.63733638E-09
 -0.95917806E-09  0.79903514E-09 -0.10629590E-07  0.21735545E-05 -0.11164005E-07
  0.49340524E-08 -0.48388659E-08  0.20552408E-08 -0.21113315E-08 -0.70123595E-10
  0.52739154E-09  0.83827762E-08  0.21912701E-05 -0.33182468E-08  0.60730566E-08
  0.50111449E-09 -0.14272168E-08  0.57091707E-08  0.32165794E-09 -0.58790411E-09
 -0.98005399E-08  0.23489989E-05  0.11018356E-07 -0.15112876E-08  0.11403151E-08
  0.52999207E-08 -0.18504061E-08  0.59658054E-09 -0.89010498E-09  0.15301426E-07
  0.21940318E-05 -0.31650160E-08 -0.32301766E-08  0.13537892E-07  0.16562253E-08
  0.21373444E-08 -0.28536022E-08  0.35532757E-08  0.93151698E-09  0.21965973E-05
  0.22610338E-08  0.45790113E-08 -0.82378466E-08  0.73699858E-09 -0.34668502E-08
  0.12229845E-08 -0.20923057E-08  0.13850154E-08  0.22031529E-05 -0.16794566E-08
  0.41633660E-08  0.12533060E-08  0.24541832E-08 -0.15572837E-08 -0.26551224E-08
  0.46761240E-08  0.27705931E-08  0.22054309E-05 -0.58367688E-08  0.30027988E-08
 -0.65388559E-08  0.19648156E-08  0.11425174E-08 -0.90066781E-09 -0.35540825E-08
 -0.43314711E-06 -0.97712394E-05  0.15878784E-05  0.45353118E-07  0.16056980E-05
 -0.14314075E-06  0.16562792E-06 -0.41968103E-07  0.11819420E-06  0.15994386E-05
 -0.22344274E-05 -0.62086913E-06  0.17954255E-06 -0.26733446E-07  0.10478347E-06
  0.57874275E-06 -0.46300257E-06 -0.26669802E-06  0.20115994E-05 -0.32985746E-05
 -0.21867006E-06  0.59523914E-06 -0.72868915E-06 -0.36583096E-07  0.40950892E-07
  0.68126192E-06 -0.12231270E-05  0.35539013E-06 -0.83024814E-06 -0.63935622E-07
 -0.10402443E-06 -0.45286685E-06  0.15317834E-06 -0.29152817E-06  0.43842738E-06
 -0.45456952E-06  0.14777206E-05 -0.35833951E-05 -0.54180254E-07 -0.62711747E-06
  0.18473990E-06  0.54558485E-06 -0.39671402E-06 -0.39539886E-06 -0.39923251E-06
  0.16121562E-06 -0.25466060E-05  0.50555984E-06  0.24834693E-06 -0.79375330E-06
  0.28690863E-06  0.69835025E-06 -0.13716379E-06  0.29599068E-06  0.18814018E-05
 -0.37680476E-05  0.46396407E-06  0.12997715E-06 -0.92057398E-06  0.63988743E-06
 -0.13566875E-06  0.77606148E-07  0.50618485E-06  0.12844317E-05 -0.24904721E-05
 -0.45833269E-06 -0.28652175E-06 -0.57107019E-06 -0.14256335E-07  0.17581811E-06
  0.14143052E-06 -0.50473376E-06  0.94344629E-06 -0.29236876E-05 -0.64543673E-06
 -0.39335549E-06  0.31471421E-06  0.69456418E-06  0.55564731E-06 -0.43966330E-06
  0.13447486E-06  0.18327135E-06 -0.16555109E-05  0.50733863E-06 -0.12594261E-06
  0.62489138E-06  0.31918228E-06 -0.61197254E-06  0.88347890E-06 -0.11214964E-05

  0.68253846E-09  0.11742303E-07 -0.78125763E-09  0.96100968E-10 -0.22947756E-09
 -0.98742344E-09 -0.24774422E-09  0.37302627E-10 -0.75689240E-10 -0.26650323E-08
  0.93810666E-08  0.13097440E-08 -0.79064768E-09  0.36072881E-09  0.20210494E-09
  0.75615156E-09 -0.69212023E-09  0.30906340E-09 -0.79524976E-10  0.11053775E-07
  0.26992801E-08  0.10731236E-08 -0.13970187E-08 -0.88613567E-09  0.57284410E-09
 -0.24806853E-09  0.79579656E-09  0.77753267E-09  0.10170218E-07 -0.43159698E-08
  0.14938106E-09  0.18173760E-09 -0.12450064E-08  0.46919626E-09  0.43488243E-09
 -0.29977440E-08  0.35923589E-09  0.13933164E-07  0.26520501E-08 -0.18415007E-09
 -0.24605397E-09  0.82215050E-09  0.30028424E-09 -0.21791703E-09  0.43901744E-09
 -0.14862951E-09  0.12499240E-07 -0.13597710E-08  0.96522347E-10  0.11587308E-08
 -0.65494515E-09 -0.45943057E-09 -0.46972481E-09  0.83061416E-10 -0.22301922E-08
  0.10127632E-07 -0.12105816E-09  0.64606570E-09 -0.26811540E-10 -0.14488681E-08
  0.54562516E-09 -0.87523500E-09  0.10076729E-09  0.82473255E-09  0.12525658E-07
 -0.24204578E-08 -0.25225383E-09  0.48189045E-09 -0.13276638E-10 -0.11544279E-08
  0.11710687E-08 -0.98412247E-09  0.26497735E-09  0.11252653E-07 -0.49671591E-08
  0.59922750E-09 -0.21967631E-10 -0.44871946E-09  0.59135135E-09 -0.34675016E-09
  0.68934706E-09 -0.46311164E-09  0.10814203E-07  0.22784553E-08 -0.83530777E-09
 -0.97316215E-10  0.16556842E-08 -0.15336106E-09  0.22281895E-09  0.11537363E-08
  0.16955511E-08  0.11018356E-07  0.96188966E-07 -0.18022661E-09  0.35673213E-09
 -0.87048666E-09 -0.81613401E-10  0.33508300E-09 -0.14307047E-08 -0.11019175E-09
  0.99548356E-08 -0.10656206E-08  0.53924334E-09  0.12252946E-09 -0.12262120E-09
 -0.68103181E-10 -0.70151668E-10  0.43928252E-09 -0.12625407E-08  0.10699410E-07
 -0.91899115E-09  0.18297439E-09  0.66111229E-09 -0.10387069E-09 -0.65798665E-09
 -0.44630419E-09 -0.17601526E-09  0.14993484E-08  0.13007612E-07 -0.33299707E-09
 -0.56891551E-09 -0.84893228E-09  0.17098743E-08 -0.41780525E-09  0.65695015E-11
 -0.68172217E-09  0.11775161E-08  0.13732228E-07 -0.40647336E-08 -0.37038238E-09
 -0.52808838E-09  0.10020762E-08 -0.11426610E-09  0.45869215E-09  0.10464951E-08
  0.26198122E-07  0.41488299E-07  0.70624433E-07  0.57930989E-07  0.24190777E-07
  0.53690795E-07  0.29051784E-07 -0.50982472E-07 -0.80290307E-07 -0.17830994E-07
 -0.82556287E-07  0.50123334E-07 -0.50073912E-07 -0.36653124E-07 -0.78036559E-07
  0.96428047E-08 -0.32782287E-07 -0.97433372E-07  0.21776388E-07 -0.10833094E-06
  0.19202842E-07 -0.11653609E-07  0.52962066E-07 -0.63140066E-07  0.44436442E-07
  0.72246073E-07  0.57191949E-07 -0.70029549E-07 -0.35112512E-07 -0.13945711E-07
 -0.44129962E-07 -0.34143637E-07  0.27600581E-07 -0.29723883E-08  0.12315656E-06
 -0.26476589E-07  0.16077344E-07  0.10948668E-07 -0.16756521E-07  0.40474692E-07
 -0.41769588E-07  0.67561038E-07  0.94156987E-08  0.61191925E-07 -0.89454075E-08
 -0.23317707E-07 -0.31670286E-07 -0.92566388E-07  0.13831311E-07 -0.22087781E-07
 -0.13421416E-06 -0.41767115E-07 -0.93478787E-07 -0.32703417E-07  0.10816532E-07
  0.60038771E-07  0.40243242E-07  0.35038516E-07 -0.67450618E-07 -0.61516424E-07
 -0.18242618E-07  0.43015099E-07  0.27220251E-07 -0.11599447E-06  0.31393928E-07
 -0.67368893E-07 -0.51404132E-07 -0.79607513E-08  0.17718560E-07  0.26973120E-07
  0.79287295E-07 -0.40426064E-07  0.17999113E-07  0.15611127E-07 -0.67973121E-07
 -0.67783241E-07 -0.32149064E-07  0.43241512E-07  0.45402288E-07 -0.40828826E-07
  0.70891334E-07 -0.23182602E-07 -0.73723123E-07  0.14308838E-06 -0.11346901E-07
  0.14459963E-07  0.10280089E-07  0.68946772E-08 -0.30755554E-07  0.75419870E-07

 -0.30850205E-09 -0.12371986E-08  0.20369221E-09 -0.40583655E-09  0.80053133E-09
  0.56705249E-09 -0.83015989E-09 -0.10466530E-09  0.26300470E-09  0.16554670E-08
 -0.39050233E-09 -0.92995279E-10 -0.34358962E-09  0.11244827E-08  0.57376440E-09
  0.24093602E-09  0.50453528E-09  0.17360805E-09 -0.10567648E-08 -0.10712041E-08
 -0.39554093E-09 -0.18821260E-08  0.12290775E-08  0.57608080E-09 -0.16874267E-09
  0.52672991E-09 -0.27921837E-10 -0.93348369E-09 -0.12966924E-08 -0.55460874E-09
 -0.11865914E-08  0.71500548E-09  0.86213020E-09  0.93355921E-10  0.68908902E-09
 -0.77620565E-10  0.21075289E-08 -0.13815781E-08 -0.56915628E-10 -0.51271206E-09
  0.76865439E-09  0.64423778E-09 -0.24568984E-09  0.48967148E-09  0.13719646E-09
 -0.62937296E-09 -0.35613453E-09  0.19983564E-09  0.19662514E-09  0.23210929E-09
  0.68617832E-09  0.16365146E-09 -0.71807433E-09  0.20359537E-09  0.25557499E-08
 -0.12916781E-08  0.45443422E-11 -0.15054941E-08  0.76780217E-09  0.82054748E-09
  0.25686533E-09  0.27411183E-09 -0.31450835E-09 -0.11329111E-08 -0.14547047E-08
 -0.36966087E-09  0.79521450E-09 -0.75245956E-10  0.56594237E-09  0.14739600E-09
 -0.23140813E-09  0.30217983E-09  0.10693393E-08 -0.80286230E-09 -0.19644698E-09
 -0.63244805E-09  0.26678345E-09  0.71536518E-09 -0.20551609E-09 -0.45288677E-09
  0.76876028E-10  0.14724811E-08 -0.45239297E-09  0.49949832E-09 -0.13069971E-08
  0.67497081E-09  0.99348518E-09 -0.21270177E-10 -0.23797845E-09 -0.67425013E-10
 -0.61390999E-10 -0.15112876E-08 -0.18022661E-09  0.44292905E-07 -0.94567554E-08
 -0.79352904E-08 -0.41165715E-08 -0.15244455E-08  0.17299896E-09  0.17480763E-08
 -0.22781617E-08 -0.20209612E-09 -0.91221218E-09  0.11540116E-08  0.98330746E-09
 -0.10296753E-08  0.63545172E-09 -0.70952538E-10  0.22642306E-08 -0.26920644E-08
  0.57535778E-09 -0.14825136E-08  0.65003516E-09  0.95689969E-09  0.16897113E-08
 -0.46446483E-09  0.19421965E-09  0.13823414E-08 -0.91668748E-09  0.28388980E-09
  0.15655978E-09  0.26748993E-09  0.45485604E-09 -0.64260107E-09 -0.69418898E-09
  0.36799497E-09  0.57611965E-10 -0.91648618E-09  0.16346991E-09 -0.18068151E-08
  0.98551710E-09  0.98446806E-09 -0.12722404E-09 -0.33623140E-10 -0.42115454E-09
 -0.28914371E-07  0.95254932E-09 -0.41583671E-08  0.55360312E-07 -0.66187655E-07
 -0.12376188E-07 -0.97596113E-07  0.12041885E-08  0.40663860E-07  0.52838975E-07
 -0.37799903E-07 -0.93546874E-08 -0.90790864E-07  0.44026313E-07  0.35803850E-07
 -0.52970464E-07 -0.59803394E-07  0.12827411E-08 -0.34795181E-07  0.29035206E-07
 -0.39691455E-08 -0.15938539E-07 -0.20487920E-07  0.10851616E-07 -0.20683116E-07
  0.98749344E-08  0.10410173E-07  0.62639226E-07 -0.41308703E-08  0.13597700E-07
  0.39315376E-07 -0.19302189E-07  0.36619485E-08  0.30614515E-08  0.39655020E-08
 -0.66089814E-08  0.53553935E-08 -0.17052317E-07 -0.14282977E-07 -0.30789338E-07
  0.37706204E-07 -0.90759045E-09 -0.41756998E-07 -0.44324390E-07  0.13817422E-07
 -0.28448380E-07  0.73035353E-08  0.22573099E-08 -0.14552619E-06  0.22865811E-07
  0.13073695E-07  0.50843296E-08  0.35569558E-07  0.95471930E-08 -0.31910154E-07
  0.11316486E-07 -0.97784763E-08 -0.76540862E-07  0.17393548E-07  0.21601478E-07
 -0.16955344E-07  0.15828844E-07 -0.11418997E-07  0.14630797E-07  0.50419754E-07
 -0.49273548E-08 -0.56957161E-08  0.34458003E-08  0.55629525E-08 -0.30388943E-07
  0.10485815E-07  0.74108155E-08 -0.67087401E-07  0.10179814E-08  0.90043942E-08
 -0.88032984E-07  0.27559281E-07  0.25659661E-07 -0.57453737E-08  0.58359979E-08
  0.12790906E-07 -0.26604288E-07 -0.23012786E-07  0.23743952E-07 -0.56573216E-07
 -0.10375097E-07  0.11334656E-07 -0.38023873E-07  0.31486084E-07 -0.12507359E-07

 -0.12429994E-09 -0.20702066E-08  0.49965265E-09  0.76197635E-09 -0.51500158E-09
  0.56296266E-09 -0.49905148E-09  0.37424626E-09 -0.69785064E-09 -0.10240297E-08
 -0.74928121E-09  0.61889723E-10  0.10738190E-08 -0.19539803E-08  0.10592583E-08
 -0.49535666E-09 -0.25012723E-10  0.30028990E-09 -0.94088874E-10  0.97621634E-09
  0.68666700E-09  0.13983576E-08 -0.13731044E-08  0.71008132E-09  0.45490003E-09
  0.67067383E-10  0.10598944E-09  0.59492243E-09 -0.18864111E-08 -0.59741055E-09
  0.74513063E-09 -0.60742395E-09  0.51975743E-09 -0.98298869E-10 -0.16658016E-09
  0.12497471E-09 -0.93664256E-10  0.20572009E-09 -0.71363043E-10  0.83968753E-09
 -0.10575393E-08  0.61244867E-09 -0.34530210E-10 -0.20284088E-09 -0.68999844E-09
  0.11840999E-10  0.12188307E-08  0.59022113E-09  0.37679936E-09 -0.11030028E-08
  0.80712075E-09  0.42598937E-09 -0.33453727E-09  0.46510390E-09 -0.65910003E-09
 -0.76993139E-09 -0.36336282E-09  0.88430525E-09 -0.18941718E-08  0.46382616E-09
 -0.12811537E-09  0.78888904E-11  0.62917953E-09  0.12194055E-08 -0.77046134E-10
  0.33698966E-09  0.14346051E-09 -0.84426589E-09  0.87495197E-09  0.10593370E-09
  0.21313266E-09 -0.47712782E-09 -0.43264694E-09  0.54024633E-09 -0.28639144E-09
  0.24533080E-09 -0.48454860E-09  0.66994977E-09  0.12635500E-09 -0.23922291E-09
  0.28253976E-09 -0.66335440E-09  0.36495734E-08 -0.18525553E-09  0.59734741E-09
 -0.82079672E-09  0.32866046E-09 -0.37382169E-09  0.33099860E-11  0.23792494E-09
  0.76744476E-09  0.11403151E-08  0.35673213E-09 -0.94567554E-08  0.39507900E-07
 -0.82940504E-08 -0.34394043E-08 -0.76538421E-09  0.82917061E-09  0.45945760E-09
  0.26130545E-08 -0.77271653E-09  0.68325490E-09 -0.15554021E-08  0.10854827E-08
  0.14439121E-09 -0.72566826E-10  0.26150075E-09 -0.57339676E-09  0.11292517E-08
  0.55033150E-09  0.99269384E-09 -0.13326373E-08  0.56596679E-09  0.82158302E-11
 -0.16387571E-09 -0.20488977E-09 -0.97108035E-09 -0.99823373E-09  0.28291468E-10
  0.65407987E-09 -0.42013986E-09  0.47548216E-09 -0.10890869E-09  0.45831602E-09
 -0.68406916E-09 -0.67960272E-09 -0.19673470E-08  0.37403810E-09  0.98920974E-09
 -0.13623843E-08  0.92296350E-09  0.24357072E-09 -0.19461678E-10  0.36933521E-09
 -0.24502300E-07 -0.77107595E-07 -0.18756837E-07 -0.51888022E-08  0.98159731E-08
 -0.64691165E-08 -0.37965573E-07 -0.14059455E-08 -0.49524580E-07 -0.18488099E-07
 -0.25061493E-08  0.14297746E-08  0.24468949E-07 -0.12846878E-07  0.22169335E-07
 -0.52650550E-07  0.93127975E-08 -0.17274546E-08  0.13527171E-07  0.30922143E-07
  0.10789343E-07 -0.25543976E-07  0.65212723E-07 -0.16781713E-07 -0.29441381E-07
 -0.10721251E-07  0.42846883E-08 -0.20766842E-07  0.37918893E-07  0.43763313E-08
 -0.17857723E-08 -0.21047381E-07  0.19001519E-07 -0.38946306E-08 -0.18709587E-07
  0.31423938E-07 -0.28189969E-08  0.16868065E-07  0.89841800E-09  0.42535542E-07
 -0.34015581E-07  0.27952755E-07 -0.24601909E-07  0.25662924E-07 -0.17782638E-07
 -0.15532729E-07  0.28345900E-08 -0.18126331E-07  0.71593145E-08  0.77382268E-07
 -0.87663432E-08  0.16293073E-07 -0.69488012E-08  0.13718345E-08  0.94220230E-08
 -0.16408558E-07 -0.11840121E-09 -0.17957523E-07 -0.18993475E-07  0.17830497E-07
  0.88827429E-08 -0.21987847E-07 -0.29407062E-07  0.15096786E-07  0.13185624E-07
 -0.13356282E-08  0.16928249E-07 -0.12335660E-07 -0.13237433E-07 -0.65586771E-08
 -0.13199169E-07  0.10176307E-07  0.81777654E-08 -0.14229177E-07  0.15067513E-07
  0.42549151E-07 -0.61184634E-07  0.14215776E-07 -0.87741549E-08 -0.99831176E-09
 -0.90103717E-08  0.38841398E-08  0.55674122E-08 -0.20618936E-07  0.15014789E-07
 -0.37231806E-07  0.25958118E-07 -0.12917064E-07  0.94429185E-08  0.15241087E-07

  0.43987083E-09  0.28770282E-08 -0.11329292E-08  0.67592047E-09  0.48336050E-09
 -0.25138254E-09 -0.45697802E-10 -0.50087843E-09  0.18495071E-10  0.26233256E-09
  0.45279948E-08 -0.32240202E-09  0.65962485E-09  0.13716325E-08 -0.99558245E-09
  0.28326372E-10  0.11031597E-09  0.19078826E-09 -0.46003931E-09  0.30112684E-08
  0.59943947E-09  0.53857113E-09  0.73807316E-09 -0.58792695E-09 -0.18970398E-09
  0.24200019E-09  0.14745249E-09 -0.42744307E-10  0.38908144E-08  0.23819561E-09
  0.78096372E-09  0.69587111E-09 -0.35148201E-09 -0.33901555E-10  0.32083139E-09
  0.24030876E-09 -0.30024562E-09  0.26783244E-08  0.36992024E-09  0.61419215E-09
  0.41113186E-09  0.61242698E-10  0.10133009E-09 -0.32616874E-09 -0.29830693E-09
  0.76980868E-09  0.25454422E-08 -0.11783595E-08  0.75966252E-09  0.99990709E-09
 -0.60419902E-09 -0.80430272E-10  0.57885226E-09 -0.40011279E-09 -0.11199520E-09
  0.37780195E-08 -0.14967409E-09  0.75570022E-09  0.43493060E-09 -0.73102122E-11
 -0.13987182E-09 -0.19288612E-09  0.25362583E-09 -0.28381561E-09  0.35171498E-08
 -0.92181108E-10  0.58100911E-09  0.82995432E-09 -0.68534478E-09 -0.19725347E-09
 -0.26313836E-09  0.78506265E-10  0.74461032E-09  0.39740712E-08  0.41428055E-09
  0.76645571E-09  0.66905287E-09 -0.27076979E-09 -0.72203542E-11  0.25964727E-09
 -0.38369366E-09 -0.69844019E-09  0.34774751E-08  0.22810687E-09  0.10398474E-08
  0.38960762E-09 -0.11868070E-08 -0.16042089E-10  0.89703612E-10  0.26682241E-09
 -0.22477483E-09  0.52999207E-08 -0.87048666E-09 -0.79352904E-08 -0.82940504E-08
  0.25865707E-07  0.73717558E-09  0.35269883E-09  0.98709550E-10 -0.19716638E-09
  0.34443392E-08 -0.31944471E-09  0.80575923E-09  0.85897864E-09 -0.17729236E-08
  0.26965224E-09 -0.28108538E-09 -0.93816158E-10 -0.34855987E-09  0.33370403E-08
 -0.51931443E-09  0.10252763E-08  0.58824117E-09 -0.72935765E-09 -0.53701495E-09
  0.28110078E-10 -0.20681210E-09 -0.16525713E-09  0.36409817E-08  0.10574767E-08
  0.59481577E-09  0.43175206E-09  0.40593472E-10 -0.63046950E-10 -0.64238176E-09
  0.10019231E-09 -0.85278899E-10  0.32853674E-08 -0.66949117E-09  0.10331599E-08
  0.85744498E-09 -0.21862729E-08  0.33834466E-10  0.11622740E-09  0.25096911E-09
  0.29872872E-07 -0.36756414E-08  0.22977532E-07 -0.52618148E-08 -0.34036234E-07
  0.11033721E-07  0.94401168E-08 -0.85989274E-08 -0.19676821E-07  0.51439692E-08
 -0.26076109E-08 -0.38014705E-08  0.40690374E-07  0.32938440E-07 -0.65727181E-07
  0.15284341E-07  0.24482771E-07  0.13597167E-08  0.13091409E-07  0.81794376E-08
  0.17852735E-07  0.78781335E-09 -0.25066898E-07  0.35672919E-07  0.14556135E-07
  0.13458499E-08 -0.20001157E-07  0.84173657E-09 -0.17279952E-07 -0.43188276E-08
  0.84537526E-08  0.21102208E-07 -0.42511549E-07 -0.15794376E-07  0.11884806E-07
  0.12555199E-07 -0.41040487E-08 -0.94293170E-08  0.27548942E-07  0.92411704E-08
  0.25373843E-07 -0.15017714E-07 -0.14762847E-08 -0.18438569E-07 -0.11077348E-07
  0.70647312E-08 -0.42233885E-08  0.45075257E-07  0.22112881E-07 -0.15052248E-08
 -0.86261774E-09  0.47654524E-08 -0.29594236E-07 -0.56121565E-08  0.47731388E-08
 -0.71611467E-08 -0.11811098E-07  0.13958212E-07  0.70835858E-08 -0.27618697E-07
  0.34877179E-08 -0.69026126E-08 -0.64113730E-08  0.70263177E-09 -0.42127205E-08
  0.22952043E-07 -0.42612671E-08 -0.19349462E-07  0.70311422E-09  0.80171209E-08
  0.92255527E-08  0.12854304E-07 -0.18834121E-08 -0.27137965E-08 -0.33491213E-07
  0.10255501E-07 -0.63917758E-08 -0.26540327E-07  0.14483172E-07  0.43347702E-07
 -0.20270338E-07  0.22766580E-08 -0.10161102E-07  0.30993560E-07  0.31246553E-09
  0.24432897E-07  0.36174505E-07  0.54251645E-09 -0.26283988E-08 -0.12605713E-07

 -0.10736349E-09 -0.47279255E-08 -0.58680741E-09  0.18206246E-10  0.72160373E-10
 -0.32390434E-09  0.29226487E-09 -0.40482675E-10  0.13201223E-09 -0.49164940E-09
 -0.28848372E-08  0.48968374E-09  0.13990067E-09 -0.52421559E-09  0.69445412E-10
 -0.15680652E-09  0.17427139E-09  0.19098956E-09  0.91342667E-09 -0.35777718E-08
  0.70966570E-09 -0.89239356E-09 -0.29763150E-09  0.39418533E-10  0.43650212E-09
  0.51659851E-09 -0.63118789E-10 -0.17332263E-08 -0.30311670E-08  0.46779403E-09
 -0.36228152E-09 -0.13680878E-09  0.21148709E-09  0.68024180E-10 -0.30846314E-09
  0.75854928E-10 -0.11440233E-08 -0.28550445E-08  0.11181170E-09  0.48430548E-10
 -0.17905882E-09  0.23736110E-10  0.20708504E-10 -0.31413569E-09 -0.10669084E-09
  0.34772251E-09 -0.42332681E-08 -0.51682053E-09  0.32993736E-10  0.12580690E-09
 -0.94362531E-10  0.77522646E-09 -0.55326137E-10  0.78192006E-10 -0.60649661E-09
 -0.36978769E-08  0.10458122E-08 -0.20898062E-09 -0.21607786E-09 -0.36317088E-09
 -0.38414341E-09  0.23719286E-09  0.58604161E-10  0.18659336E-09 -0.15187264E-08
 -0.82839686E-09  0.36011150E-10  0.32753316E-09 -0.50228251E-09  0.19693543E-09
 -0.24841399E-10  0.43527111E-09  0.55664564E-09 -0.34366016E-08  0.55155046E-09
 -0.12341213E-09 -0.69114457E-09  0.28564289E-09  0.17485788E-09  0.46467653E-09
  0.18658779E-11  0.22396859E-08 -0.34836442E-08  0.47497941E-09  0.25566048E-09
  0.46985159E-09 -0.18336817E-09  0.15911585E-09 -0.15670747E-09 -0.10391670E-10
 -0.24085988E-08 -0.18504061E-08 -0.81613401E-10 -0.41165715E-08 -0.34394043E-08
  0.73717558E-09  0.25295353E-07  0.63372621E-09 -0.14185631E-08 -0.22414269E-09
 -0.29417045E-08  0.46484703E-09  0.33707242E-09 -0.36965412E-09 -0.77287137E-10
 -0.67146300E-09 -0.28516831E-09 -0.46405919E-10 -0.74007985E-09 -0.40076367E-08
  0.39249529E-10 -0.89775541E-10 -0.50437946E-09 -0.25935139E-09  0.65701639E-09
  0.11987885E-09 -0.89874827E-10 -0.23303571E-09 -0.26403856E-08 -0.63234177E-09
 -0.49099917E-09  0.59723814E-09 -0.20438041E-09 -0.42563390E-09 -0.11642984E-09
  0.29878164E-09  0.17463935E-08 -0.33712156E-08 -0.25684129E-09 -0.68707747E-09
 -0.55795956E-09 -0.13558856E-09  0.53621585E-09 -0.25928645E-09  0.48212645E-09
  0.77127583E-08  0.80628262E-08  0.14122587E-07 -0.64074792E-07  0.51075755E-08
  0.15800283E-08  0.42254224E-07 -0.42988338E-08  0.13976336E-07  0.31302295E-08
  0.26471692E-07 -0.59494933E-08 -0.40174984E-07 -0.41233710E-07  0.21619435E-07
  0.42477350E-08  0.37237073E-08  0.82439897E-08  0.21428125E-07  0.69425944E-08
 -0.75578245E-08  0.14371722E-07 -0.34503387E-07  0.13175082E-07  0.17575106E-07
  0.18304361E-07 -0.27064996E-08 -0.43960534E-08  0.88384091E-08  0.91415125E-08
 -0.36582162E-07 -0.62934115E-08 -0.30145468E-09  0.32823159E-07  0.11596650E-07
  0.10216658E-07  0.11913014E-07  0.30586545E-07  0.14848401E-07 -0.28026625E-07
 -0.49758669E-07  0.43923486E-08  0.15007010E-07  0.31385859E-08  0.10693709E-07
  0.85748156E-08 -0.68336302E-08  0.69231816E-08 -0.14494705E-07 -0.30441529E-08
  0.73011608E-08 -0.34302606E-07  0.35083296E-08 -0.19722850E-07 -0.14159651E-07
  0.69008425E-08  0.89773081E-08  0.44649345E-07 -0.12498436E-07 -0.23126953E-08
 -0.79357066E-08  0.18308133E-07  0.43577470E-08  0.76951813E-07 -0.14359180E-07
  0.98487848E-08 -0.87842969E-08 -0.84461667E-08  0.88878323E-08  0.63199061E-07
  0.46323651E-08  0.54168088E-08  0.36669710E-07 -0.12626503E-07 -0.27699874E-08
 -0.85040969E-08  0.23136124E-07  0.88318488E-08  0.16543537E-07  0.15925726E-07
  0.14414698E-07 -0.48075075E-09 -0.57253845E-08 -0.14276340E-07 -0.35756251E-07
  0.27558614E-07 -0.93010292E-08  0.62876441E-07  0.19813042E-07  0.14559850E-09

  0.93726271E-10  0.40493630E-10  0.13673913E-09 -0.13215218E-10  0.29037299E-09
 -0.58046911E-09 -0.19561079E-09 -0.68973388E-09 -0.48699096E-09 -0.42228108E-09
  0.10753079E-08  0.43901393E-09  0.32817362E-09 -0.11755439E-09  0.93909762E-10
  0.54133221E-09 -0.78943121E-09  0.57131158E-11 -0.10817651E-09  0.94470238E-09
 -0.16069156E-08  0.54246907E-09  0.20465816E-09  0.19529119E-09  0.25821334E-09
 -0.11629714E-08 -0.10586552E-09 -0.88262288E-09  0.10892274E-08 -0.32055718E-09
  0.27163837E-09 -0.27603099E-09  0.46502360E-09  0.46196768E-10 -0.78109514E-09
  0.16076453E-09  0.96295127E-10  0.77230884E-09  0.66538444E-09  0.46057930E-09
 -0.19721350E-09 -0.44391550E-09 -0.16186189E-09 -0.17250950E-09  0.11281136E-09
  0.40191255E-09 -0.18434945E-09  0.94918643E-09 -0.68180858E-09 -0.30428056E-09
  0.58159732E-09  0.54692855E-09  0.95190006E-10  0.16518430E-09 -0.26608415E-09
  0.48580543E-09  0.14243157E-09  0.18542233E-09 -0.48024054E-10 -0.31787404E-09
  0.31720808E-10 -0.43890458E-09 -0.24310029E-09 -0.59981078E-09  0.34619252E-09
 -0.24772954E-09 -0.15241950E-09  0.20913300E-09 -0.33503471E-09  0.22088341E-09
 -0.32855400E-09 -0.19312176E-09 -0.17529661E-09  0.35586026E-09  0.11797077E-08
 -0.43102764E-09 -0.16941986E-09  0.28529657E-09  0.15690479E-09  0.52720351E-10
  0.39900931E-10  0.61626286E-09  0.78117409E-09 -0.67626240E-09 -0.26094201E-09
 -0.75037485E-11  0.10376818E-09  0.69101000E-10 -0.92869992E-09 -0.18811126E-09
 -0.14707987E-10  0.59658054E-09  0.33508300E-09 -0.15244455E-08 -0.76538421E-09
  0.35269883E-09  0.63372621E-09  0.20119831E-07 -0.16335595E-08 -0.86052987E-09
  0.13415327E-09  0.68098922E-10  0.61960765E-09 -0.10207041E-09 -0.26105204E-09
 -0.15172314E-09 -0.92311027E-09  0.11397809E-09  0.39840735E-09  0.10558974E-08
  0.24184037E-09 -0.44916632E-09 -0.26981119E-09  0.33833662E-10 -0.60379423E-10
 -0.44902663E-09  0.10925016E-09  0.67436347E-09  0.82998169E-10 -0.43689700E-09
 -0.88403504E-09  0.43443127E-09 -0.59962550E-09  0.34685247E-09 -0.29404623E-09
 -0.40561348E-09 -0.43708043E-09  0.57574811E-09 -0.81564955E-10 -0.13231688E-11
 -0.94206052E-10  0.19904107E-09 -0.56937538E-10 -0.14087237E-08  0.24977980E-09
  0.98532604E-08 -0.40692245E-08  0.18563242E-07 -0.17076345E-07  0.17471779E-07
 -0.18768298E-07 -0.75486660E-08  0.97635332E-08 -0.15851417E-07  0.25899589E-08
 -0.93898568E-08  0.18671549E-07 -0.30246170E-07  0.11790508E-07  0.15590016E-07
 -0.53387963E-08  0.15840629E-07 -0.19591305E-07  0.32515447E-08  0.14900176E-07
 -0.30306654E-08  0.26445381E-07  0.23745968E-08 -0.14595191E-07  0.39426535E-09
  0.96307679E-08 -0.20388672E-07  0.37698183E-08 -0.50985724E-08  0.52096270E-08
  0.94042829E-08 -0.14221778E-07  0.54092899E-08  0.21636978E-07 -0.56620490E-10
 -0.14981956E-07  0.79800082E-08  0.99093659E-08  0.10514674E-07 -0.35319898E-07
  0.17540060E-07 -0.15230915E-07 -0.35476779E-08 -0.96614398E-08 -0.97668519E-08
  0.41606404E-07  0.37657007E-09 -0.50292921E-08  0.37932362E-07 -0.35208942E-08
 -0.18508200E-07 -0.44983682E-08 -0.28210670E-07  0.17909300E-07 -0.91850381E-08
  0.41114091E-08 -0.18756966E-08  0.45847161E-07 -0.19660909E-07 -0.85466311E-08
 -0.20252430E-07 -0.24497747E-07 -0.70228065E-09 -0.82038943E-10 -0.12076717E-07
  0.86695983E-08  0.64233559E-08 -0.16504503E-08  0.11889571E-07  0.18199368E-07
 -0.33772361E-09 -0.91792505E-08  0.13117945E-07 -0.45420655E-08 -0.23762025E-07
  0.92882807E-08 -0.83061978E-08  0.29861169E-07 -0.38635473E-08 -0.27862922E-07
  0.15391759E-07  0.31455428E-07 -0.22731851E-08  0.16952710E-08  0.39074887E-07
  0.21132688E-07 -0.21424351E-07  0.32958060E-08  0.11220853E-07 -0.89360083E-08

 -0.40802886E-09 -0.10226772E-08 -0.22216247E-09 -0.13432398E-09  0.88100835E-10
  0.28869326E-09  0.42100093E-10 -0.15843537E-10  0.14192270E-09  0.32391708E-09
 -0.97295394E-10 -0.28702802E-09 -0.15431415E-09  0.59369550E-09  0.70645702E-10
  0.30930803E-09  0.15911569E-09  0.23503168E-10  0.56426021E-09 -0.85479805E-09
 -0.17544717E-09  0.39856775E-09 -0.28589616E-09  0.24359481E-09 -0.11723481E-09
 -0.15274986E-09 -0.21630302E-09  0.19878092E-09 -0.73524761E-09 -0.20860631E-08
 -0.17321243E-09 -0.20358713E-09  0.12771293E-09  0.81172461E-10  0.31268810E-09
  0.23822595E-09 -0.11218482E-09  0.42014479E-09  0.31334550E-09  0.64809959E-10
 -0.23513166E-09 -0.51192588E-09 -0.23532934E-09  0.35524742E-10  0.20529867E-11
 -0.40696109E-09 -0.44533232E-09  0.10754532E-08  0.15188963E-10 -0.33317188E-10
 -0.24023143E-09 -0.23952018E-10  0.12511901E-09  0.70090672E-09  0.10515337E-08
 -0.17795545E-08  0.10012289E-08  0.63869019E-10  0.13412799E-09  0.29192207E-10
  0.90630231E-10 -0.48050863E-09  0.25681474E-09 -0.84633428E-09 -0.13323429E-08
 -0.79026661E-09  0.35043229E-10 -0.32041201E-09  0.21161376E-09  0.34334984E-09
 -0.26936690E-09  0.36305790E-09  0.67665715E-09 -0.89922982E-09  0.11234183E-08
  0.16908450E-09  0.47672487E-09 -0.14638283E-09  0.89981953E-10  0.47243239E-10
  0.78508994E-09  0.46513583E-09 -0.48664149E-09  0.11650940E-08 -0.34872135E-09
  0.16174727E-09  0.51123572E-09 -0.22182238E-10  0.26162356E-09  0.38202867E-09
 -0.66940886E-11 -0.89010498E-09 -0.14307047E-08  0.17299896E-09  0.82917061E-09
  0.98709550E-10 -0.14185631E-08 -0.16335595E-08  0.18395014E-07  0.47541192E-09
 -0.85101070E-09  0.46383710E-09 -0.22589622E-09 -0.50967284E-09  0.54017523E-09
  0.73726545E-10  0.13928003E-09 -0.49986548E-09 -0.18532146E-09 -0.15385120E-09
 -0.70930713E-09  0.12857797E-09  0.95520054E-10 -0.23159162E-09 -0.19368577E-09
 -0.36039083E-09  0.28197925E-09 -0.55440611E-09 -0.73953056E-09 -0.81856959E-12
  0.45729854E-10  0.94392223E-10 -0.14097089E-09  0.22238604E-09 -0.96477471E-10
  0.20474232E-10 -0.22420348E-09 -0.16154123E-09 -0.31674025E-11  0.64798408E-10
 -0.33007194E-09 -0.14857481E-09  0.34179370E-09 -0.26019799E-09  0.37881214E-09
  0.46958283E-08 -0.28196421E-07 -0.29308593E-07 -0.58572611E-09 -0.48213622E-07
  0.30199834E-07 -0.28898372E-08 -0.10626191E-07  0.15810933E-07 -0.17645259E-07
  0.16471190E-07  0.15445589E-07 -0.34169609E-08  0.26763506E-07  0.13002193E-07
 -0.82803143E-08  0.10124048E-08  0.12868526E-08 -0.35046007E-08  0.27261529E-07
  0.28443871E-07  0.69212686E-08  0.60715678E-07 -0.53475894E-08 -0.22294583E-07
  0.74168730E-08  0.64903900E-08  0.67613229E-08 -0.36807916E-08 -0.31490257E-07
  0.47657685E-08  0.31764391E-08  0.84398415E-08 -0.41407504E-08 -0.95890840E-08
 -0.16135177E-07  0.57785874E-08  0.53792020E-08  0.45030754E-08 -0.83657494E-08
  0.19720450E-07  0.53510025E-08  0.35407877E-09  0.95558906E-09 -0.49738884E-08
  0.11885968E-08 -0.11794167E-07  0.14246529E-08  0.45949697E-08  0.36128509E-08
 -0.93356091E-08 -0.11627531E-07  0.27094854E-08 -0.33022207E-07  0.14169211E-07
 -0.41800772E-09  0.19638371E-07 -0.27702089E-08  0.23163178E-07 -0.82892541E-08
  0.56320459E-08 -0.21508043E-08  0.54803296E-07  0.22257898E-08 -0.24012090E-08
  0.32285772E-07  0.15958038E-07 -0.92308952E-08 -0.24945233E-07  0.58911506E-08
  0.58835782E-08  0.10008965E-07  0.10549177E-07 -0.10931368E-07 -0.41942428E-08
  0.12247033E-07 -0.61569095E-09 -0.14901716E-07  0.10219380E-07  0.13519695E-07
 -0.27684193E-07 -0.13491511E-07  0.18339057E-07 -0.99983050E-08  0.21145865E-07
  0.16549882E-07 -0.79262384E-08 -0.37133841E-08 -0.73532358E-08  0.24893584E-08

 -0.13703100E-08  0.13117838E-07  0.20004169E-08 -0.68825478E-09  0.15443605E-09
  0.77536181E-09 -0.84152503E-09 -0.99854077E-09  0.13253182E-08  0.17895984E-08
  0.12759914E-07 -0.13836867E-08  0.14060475E-08 -0.36823581E-09  0.11158080E-09
  0.77293000E-09 -0.63884363E-09  0.90364514E-10 -0.38257551E-08  0.13140646E-07
 -0.11457729E-08 -0.23694997E-08  0.83705546E-09 -0.94576334E-11 -0.13516632E-08
  0.10106926E-08 -0.79703726E-09 -0.13882650E-08  0.13471778E-07  0.13160217E-08
  0.18448140E-08  0.12267555E-08  0.19694517E-09 -0.15210321E-08  0.11340866E-08
  0.51693482E-09  0.66849711E-08  0.10280503E-07 -0.18013811E-08  0.10388243E-08
  0.46823242E-09 -0.12638326E-09  0.27471959E-09  0.27852980E-09 -0.81442777E-09
  0.12934665E-08  0.14308954E-07  0.25863888E-10 -0.25190251E-08 -0.41008929E-09
  0.69370086E-09  0.60929855E-09  0.71996541E-09  0.15364096E-09 -0.17427955E-08
  0.11432414E-07  0.11852637E-08 -0.54921653E-09  0.10033296E-10  0.34666124E-09
  0.10969231E-09 -0.11004110E-08  0.30497530E-09  0.11563540E-08  0.16033223E-07
  0.58048536E-09 -0.20812568E-08 -0.46865231E-09  0.99558848E-09  0.49475599E-11
  0.30668628E-09  0.81754555E-09  0.11034060E-07  0.16619100E-07  0.13861586E-08
  0.76899200E-09 -0.84703645E-09  0.10633766E-09  0.37752158E-09  0.78126284E-09
  0.10987472E-08  0.31450229E-08  0.12480850E-07 -0.16588180E-08  0.21910108E-08
 -0.76275972E-09  0.10408731E-08  0.53063718E-09  0.15445331E-08  0.17568716E-09
 -0.21887654E-08  0.15301426E-07 -0.11019175E-09  0.17480763E-08  0.45945760E-09
 -0.19716638E-09 -0.22414269E-09 -0.86052987E-09  0.47541192E-09  0.12559566E-06
  0.86800962E-08  0.84577041E-09 -0.12020114E-08  0.35698657E-10  0.53764071E-09
  0.23097489E-08 -0.10655015E-08 -0.33170110E-10 -0.32883503E-08  0.12254996E-07
  0.17070692E-08 -0.93363846E-09  0.52367962E-09 -0.43609693E-09 -0.13285784E-08
 -0.73106846E-09  0.28157302E-09 -0.12924886E-09  0.16566098E-07  0.26205595E-08
 -0.40256857E-09  0.83876165E-09 -0.82930875E-09 -0.19983962E-09  0.50059426E-09
 -0.60270570E-09  0.92442996E-09  0.12518870E-07  0.18556519E-08  0.92728894E-09
  0.77561813E-09 -0.37682081E-09 -0.16742100E-08  0.78920316E-10  0.26728796E-09
  0.14312565E-06 -0.14024296E-06 -0.76463378E-07 -0.13344535E-06 -0.13044644E-06
  0.36043794E-07  0.63815571E-07  0.14567688E-06  0.21313179E-07  0.21483006E-06
 -0.63697050E-07  0.13161222E-07  0.18185201E-06  0.38072039E-07 -0.55134769E-07
 -0.38888670E-07 -0.71627414E-07  0.19141320E-07 -0.73509036E-07 -0.45000097E-07
 -0.16045376E-07  0.23790630E-06  0.66444876E-07 -0.26744243E-07 -0.13337889E-06
  0.84069899E-07 -0.11865003E-07 -0.50890780E-07  0.13286131E-07  0.10703199E-07
 -0.12501062E-06 -0.10639909E-07  0.20262015E-07 -0.92324598E-08  0.23694559E-07
 -0.47497711E-07 -0.13028350E-08 -0.60033695E-08  0.21232141E-07 -0.44166017E-07
 -0.47182503E-08  0.48982754E-07 -0.63677182E-08  0.99327822E-07 -0.49599217E-07
  0.72197543E-07 -0.12423053E-06 -0.31351165E-07 -0.84881120E-07  0.95131168E-07
 -0.23151424E-07  0.14936220E-06 -0.28286086E-07 -0.58175378E-07  0.54751616E-07
  0.15184885E-06 -0.13006204E-06 -0.22723529E-06  0.10039029E-06  0.36987555E-07
 -0.30679886E-07 -0.74383030E-08 -0.69674866E-07  0.15712277E-06  0.45958897E-07
 -0.37927184E-07  0.86866583E-07  0.27267430E-07 -0.27186184E-07 -0.97675180E-07
  0.40026572E-07 -0.32714160E-07  0.65957238E-07 -0.62395335E-07 -0.66051148E-07
  0.19850201E-06  0.43648575E-07 -0.36071042E-07 -0.13687900E-06 -0.62097815E-07
  0.47322970E-07 -0.27483302E-06  0.31508757E-07  0.54562170E-07 -0.89126976E-08
  0.67267213E-08  0.21688352E-07  0.35415230E-07  0.10068580E-07 -0.18984868E-08

 -0.43348119E-09  0.21938656E-05 -0.65290365E-08  0.27340272E-08  0.74188708E-09
  0.57628160E-08 -0.50926478E-08 -0.12238200E-08 -0.18900436E-08  0.27499798E-08
  0.21767082E-05 -0.69030408E-08  0.26033433E-08 -0.53246844E-08  0.15632291E-08
 -0.39900084E-08  0.19192586E-08  0.26509971E-09 -0.48244487E-08  0.21906177E-05
  0.68584299E-08  0.18448798E-08  0.11076671E-07 -0.59844643E-10  0.57213889E-08
  0.94417479E-09  0.27491551E-08  0.49625642E-08  0.21725519E-05  0.40589483E-08
  0.14348661E-09  0.60827327E-08 -0.11409291E-09  0.47849644E-08  0.13103194E-08
  0.12883949E-08 -0.16010902E-08  0.21674309E-05  0.61557982E-08  0.28640704E-08
 -0.10087748E-08 -0.10088352E-08  0.72770744E-09  0.20451450E-08  0.51773016E-10
 -0.19267235E-08  0.21663093E-05 -0.20908168E-08 -0.74608401E-10  0.21436920E-08
  0.19123084E-08  0.23528283E-09 -0.34663370E-08  0.56001477E-08  0.97693422E-08
  0.21412785E-05 -0.26296362E-08  0.65760964E-09  0.61131647E-10  0.73437463E-09
 -0.22963665E-08 -0.10870487E-08  0.16818965E-08  0.31857629E-08  0.21737164E-05
  0.58675973E-08 -0.54342748E-08  0.79766402E-08  0.89680095E-09 -0.92999454E-09
 -0.26515947E-09  0.48914439E-09 -0.11059972E-07  0.21545543E-05 -0.12157557E-07
  0.42516853E-08 -0.63669530E-08  0.95504917E-09 -0.18731467E-08 -0.28391254E-09
  0.16392288E-08  0.87563524E-08  0.21620527E-05 -0.22990856E-08  0.59662862E-08
 -0.36637204E-08 -0.20107421E-08  0.45442910E-08 -0.17321977E-09 -0.19253985E-08
 -0.11379457E-08  0.21940318E-05  0.99548356E-08 -0.22781617E-08  0.26130545E-08
  0.34443392E-08 -0.29417045E-08  0.13415327E-09 -0.85101070E-09  0.86800962E-08
  0.23157484E-05  0.28491769E-08 -0.36996437E-08  0.52619312E-08  0.17801400E-08
  0.81654102E-09 -0.29118491E-08  0.35845118E-08  0.36139930E-08  0.21729362E-05
  0.25804330E-08  0.81875993E-08 -0.11057422E-07 -0.28381913E-10 -0.15936480E-08
  0.78516038E-09 -0.74315031E-10  0.27953883E-08  0.21779666E-05  0.13303365E-09
  0.30036298E-08  0.47258604E-08  0.21899729E-08 -0.27508123E-08 -0.27694889E-08
  0.24291184E-08  0.25620145E-08  0.21816032E-05 -0.37307095E-08  0.32132119E-08
 -0.31500759E-08  0.24961594E-08 -0.76285292E-09  0.32388861E-09 -0.61981000E-08
 -0.51398123E-06 -0.98317954E-05  0.15927137E-05 -0.37408746E-09  0.20614003E-05
 -0.14971599E-06  0.25029861E-06  0.55788076E-07 -0.73977030E-08  0.16212851E-05
 -0.19453233E-05 -0.51011617E-06  0.12740895E-06 -0.91089298E-07  0.71105191E-07
  0.70537583E-06 -0.41206403E-06 -0.37137392E-07  0.19768254E-05 -0.33761770E-05
 -0.11235753E-06  0.62066239E-06 -0.79818253E-06  0.21833731E-07 -0.49345961E-07
  0.68560600E-06 -0.12851815E-05  0.29320020E-06 -0.71047544E-06  0.32148480E-07
  0.36078261E-08 -0.43738303E-06  0.78059511E-07 -0.22927657E-06  0.39902906E-06
 -0.28720708E-06  0.14304677E-05 -0.34828459E-05 -0.83827261E-07 -0.48682570E-06
  0.39168877E-06  0.47487969E-06 -0.68181194E-06 -0.37686158E-06 -0.32980089E-06
  0.15891086E-06 -0.24924455E-05  0.54046284E-06  0.36187474E-06 -0.10492595E-05
  0.26761039E-06  0.95101576E-06 -0.64023654E-07  0.46101143E-06  0.19341922E-05
 -0.37748474E-05  0.58529774E-06  0.18813885E-06 -0.90023541E-06  0.62369522E-06
 -0.12172914E-06  0.13158149E-06  0.56743055E-06  0.11646282E-05 -0.24110271E-05
 -0.45421315E-06 -0.25633189E-06 -0.10448848E-05  0.51393879E-08  0.17603617E-06
  0.11917050E-06 -0.60159988E-06  0.98381233E-06 -0.30512647E-05 -0.62194322E-06
 -0.33783817E-06  0.17053165E-06  0.68471134E-06  0.47470119E-06 -0.47291982E-06
  0.14210793E-06  0.14202079E-06 -0.16651697E-05  0.29038166E-06 -0.66836415E-07
  0.43198666E-06  0.31247743E-06 -0.46408161E-06  0.90353162E-06 -0.97311947E-06

  0.18631028E-08 -0.60000664E-09  0.93989757E-10 -0.92109035E-09 -0.77403383E-09
 -0.35749551E-09  0.15387776E-08  0.75599446E-10  0.15210067E-08 -0.10440177E-08
  0.28044953E-09 -0.93355564E-09 -0.31577954E-09 -0.62653538E-09 -0.96112781E-09
  0.13295807E-09  0.74986218E-09 -0.72695613E-09 -0.21912421E-08 -0.77326322E-09
 -0.29680719E-08 -0.18349943E-11  0.26712838E-09  0.11202997E-08 -0.76438558E-09
 -0.11778410E-08 -0.74454638E-09  0.48399300E-09 -0.52412237E-09  0.93718988E-10
  0.32520757E-09 -0.21463739E-09  0.10249530E-08  0.65863569E-09  0.15747110E-08
 -0.30160414E-09 -0.16961567E-08 -0.44267488E-08  0.35780698E-08 -0.11741193E-08
  0.52154071E-09  0.22392611E-08 -0.71829839E-09  0.12645010E-09 -0.20695129E-09
  0.11290712E-08 -0.99030400E-09  0.34121784E-08 -0.44463586E-09 -0.59629770E-09
  0.18532070E-08  0.30419824E-09 -0.76783706E-09  0.36039700E-09 -0.25711613E-10
 -0.31347307E-08 -0.90813420E-09 -0.32754006E-09 -0.10483341E-08 -0.35387741E-09
  0.19324555E-09 -0.12536801E-09 -0.29951420E-10  0.41604332E-10  0.47129845E-10
  0.59587581E-09 -0.11413627E-09  0.19826424E-09  0.93273735E-10  0.86859172E-09
  0.16479385E-09  0.84691935E-09  0.12701230E-08 -0.32664494E-08  0.42136150E-08
  0.75925223E-09  0.47535670E-09 -0.37158873E-09  0.10246065E-08 -0.51542886E-09
  0.31204611E-08 -0.16179762E-08 -0.14668850E-08  0.16417598E-08  0.19287192E-08
 -0.55446033E-09 -0.21593320E-08 -0.79236084E-10  0.17787008E-08  0.52208619E-09
  0.56967675E-09 -0.31650160E-08 -0.10656206E-08 -0.20209612E-09 -0.77271653E-09
 -0.31944471E-09  0.46484703E-09  0.68098922E-10  0.46383710E-09  0.84577041E-09
  0.28491769E-08  0.11760491E-06 -0.56591927E-09  0.80754631E-10 -0.11571249E-08
 -0.11463507E-09 -0.40742194E-09  0.35102899E-08  0.19916285E-08 -0.13588981E-08
 -0.55921771E-08 -0.94815704E-09 -0.69862449E-10  0.58184485E-09  0.46357405E-09
 -0.12428225E-08  0.62439971E-09  0.28220486E-08 -0.92040627E-09  0.29295738E-08
 -0.73404272E-09 -0.33715773E-09  0.20132903E-08 -0.95166794E-09 -0.93182125E-09
 -0.98970294E-09  0.18109435E-08 -0.28390358E-08 -0.33577799E-08 -0.16778568E-09
  0.16371984E-08 -0.81563225E-09  0.42008526E-09 -0.43802186E-10 -0.17105542E-08
 -0.74725026E-07 -0.61311022E-07 -0.96944142E-07  0.78459486E-07  0.90433238E-07
  0.58297843E-07 -0.70764354E-08 -0.38553502E-07 -0.52988418E-07  0.55969913E-07
 -0.41395749E-07  0.74724537E-07 -0.99198646E-07 -0.39792547E-07  0.82258189E-07
  0.77203312E-07 -0.60338564E-08  0.67574294E-07 -0.11115258E-07  0.94506284E-08
 -0.60894441E-07  0.61836790E-07  0.71977041E-07  0.37726792E-07 -0.21574093E-07
  0.67473791E-07 -0.47842360E-07  0.29958833E-07  0.31615219E-07  0.26556108E-07
  0.24848620E-07 -0.66296132E-07 -0.29541149E-07 -0.75571658E-07 -0.46976202E-07
 -0.73182386E-07 -0.30781017E-08  0.38000339E-07  0.93589822E-07  0.13127374E-06
  0.10795264E-07 -0.10773160E-06 -0.10153397E-06 -0.82258253E-09  0.26938691E-07
  0.18260339E-07 -0.51953313E-07 -0.25089758E-07 -0.25543079E-07 -0.10890045E-06
  0.36138879E-07 -0.61920286E-07 -0.29050885E-07 -0.14197341E-07 -0.14096848E-06
  0.44942121E-07  0.78181212E-07  0.44503637E-07 -0.11168621E-06  0.26191722E-07
 -0.99729161E-07  0.24751640E-08 -0.49989168E-07 -0.16652919E-07  0.42022384E-07
  0.10362660E-06  0.42479889E-07  0.74941325E-07 -0.42911575E-07 -0.63685780E-07
  0.94776245E-08 -0.54958260E-07 -0.36552925E-07 -0.45933848E-08  0.61698287E-07
 -0.14083069E-07 -0.57337267E-08  0.81249851E-08  0.62999020E-07  0.91603009E-08
 -0.25155523E-07  0.39539702E-07  0.13511888E-07 -0.15880419E-06  0.91622922E-08
  0.22449309E-07 -0.97960302E-07  0.39364732E-07  0.34280048E-07 -0.44309759E-07

  0.50449068E-09 -0.35147284E-08 -0.64189961E-10 -0.42976598E-10  0.77704655E-09
  0.46668182E-09 -0.42529411E-09  0.67265479E-09  0.30599780E-09 -0.88214722E-09
 -0.19895299E-08  0.61166720E-09 -0.62189123E-09  0.49207958E-09  0.58684967E-09
 -0.17106519E-10 -0.43608061E-10 -0.17798628E-09 -0.27736323E-11 -0.27912784E-08
 -0.51870264E-09 -0.64644400E-09  0.33211654E-09  0.53458315E-09 -0.49132605E-10
  0.11129900E-09 -0.11014221E-09  0.28209087E-09 -0.30682232E-08 -0.10868553E-08
  0.55243713E-09  0.20866635E-09  0.38810518E-09 -0.34821291E-09 -0.24934218E-09
 -0.21129483E-10  0.29712930E-09 -0.30464983E-08  0.41580721E-09  0.18227536E-08
 -0.45114445E-09  0.55965048E-09 -0.85364066E-09 -0.10476544E-08  0.99248962E-10
  0.14761444E-08 -0.34119083E-08 -0.27485223E-09 -0.12426403E-08  0.12082628E-08
  0.52281344E-09 -0.20523907E-09  0.19703281E-09 -0.26838907E-09 -0.42254889E-09
 -0.30392519E-08 -0.47935182E-09 -0.77069104E-09  0.11461223E-09  0.50159518E-09
  0.70361272E-09  0.99165781E-10 -0.18373277E-09  0.16179055E-09 -0.23469809E-08
  0.59183534E-09 -0.14827600E-08  0.10372463E-08  0.59681590E-09 -0.89036826E-09
  0.22050496E-09 -0.21199019E-09 -0.26473101E-09 -0.33300514E-08 -0.13761153E-08
 -0.15788174E-08  0.64173544E-09  0.73232709E-09  0.72074206E-09  0.44395513E-09
 -0.19624402E-09 -0.34836413E-09 -0.37434368E-08 -0.42667748E-09  0.15166873E-08
  0.33454579E-09  0.55583736E-10 -0.22163207E-09  0.18643671E-09 -0.10491496E-09
  0.94231619E-10 -0.32301766E-08  0.53924334E-09 -0.91221218E-09  0.68325490E-09
  0.80575923E-09  0.33707242E-09  0.61960765E-09 -0.22589622E-09 -0.12020114E-08
 -0.36996437E-08 -0.56591927E-09  0.43089296E-07 -0.10770902E-07 -0.91584965E-08
 -0.22477402E-08 -0.12335849E-08 -0.33611217E-09  0.15820381E-08 -0.14810045E-08
 -0.69835996E-09 -0.19203479E-09  0.10593752E-08  0.28231177E-09 -0.39493654E-09
 -0.27816648E-09 -0.60346443E-10 -0.15883781E-08 -0.33803167E-08  0.33819085E-09
 -0.16657479E-08  0.11891062E-08  0.74929885E-09 -0.37545285E-10  0.10130477E-08
  0.13049834E-10 -0.10738716E-08 -0.26021335E-08 -0.29425130E-09 -0.26091668E-10
  0.60324162E-09 -0.41650565E-10  0.71019105E-10 -0.82543923E-09  0.58805164E-09
  0.24893729E-07  0.23705641E-07 -0.11522540E-07  0.14837623E-07  0.15392941E-07
 -0.67706765E-08 -0.57497000E-08 -0.52765231E-08 -0.20243806E-07  0.49256173E-07
 -0.25479795E-07 -0.77978760E-08  0.54130336E-07  0.23499989E-08 -0.11586396E-07
 -0.17033074E-07  0.33211705E-08  0.13446438E-07 -0.17184908E-07  0.11031417E-07
 -0.53183397E-08 -0.11853728E-07 -0.69890785E-08 -0.46635955E-08 -0.15514267E-07
 -0.18678874E-07 -0.10886513E-07 -0.12216351E-07  0.43357220E-08  0.10874969E-07
 -0.16666037E-07  0.42769713E-07 -0.15023712E-07  0.34998128E-07 -0.58805870E-08
 -0.52657934E-08 -0.68485957E-07  0.74939882E-08  0.45813057E-08 -0.72335802E-07
 -0.25271692E-08  0.32583936E-07  0.74188164E-08 -0.44709467E-07  0.20808022E-08
  0.52151372E-07  0.19693165E-07 -0.25394108E-07  0.83073317E-08  0.21113758E-07
 -0.86940449E-08 -0.34474438E-07  0.47617639E-08  0.27495572E-07  0.26409757E-07
 -0.35335482E-07 -0.43171105E-08  0.23157861E-07 -0.59950370E-08  0.10683512E-07
 -0.17737339E-08 -0.12897571E-08  0.17231919E-07 -0.29262555E-07  0.14775921E-07
  0.15229553E-07 -0.66900087E-07 -0.16957305E-07  0.18164543E-07  0.41492986E-07
  0.67059544E-08 -0.51165687E-08 -0.29240068E-07  0.62443529E-08  0.16218256E-07
  0.23926483E-07  0.40674684E-07 -0.26558507E-07 -0.59958885E-07 -0.85055094E-08
  0.17857648E-07 -0.15810350E-07  0.18210232E-07  0.45788833E-07 -0.31193128E-07
  0.40418438E-07  0.77078246E-08 -0.51951022E-07 -0.44168696E-07 -0.99694209E-08

  0.24154010E-09  0.11450634E-07  0.13648114E-08  0.78955662E-09 -0.15934713E-08
  0.34901317E-09 -0.19030931E-09 -0.52073287E-09  0.52549270E-09  0.10236977E-08
  0.13264368E-07 -0.67572844E-09  0.58809119E-09 -0.86895717E-09  0.41130142E-09
  0.38528607E-09 -0.21105215E-10 -0.13464496E-09  0.20325021E-09  0.10956421E-07
  0.63325946E-09  0.19537555E-09 -0.16813964E-08  0.67330451E-09 -0.12544836E-09
  0.29219010E-09  0.12344276E-10  0.61734473E-09  0.91036713E-08 -0.35559890E-09
  0.30461649E-09 -0.10305965E-08  0.82566670E-09 -0.35304115E-09  0.19513090E-09
 -0.10095656E-09 -0.88929907E-09  0.10139555E-07 -0.25092674E-08 -0.34713313E-09
  0.33137418E-08  0.52729079E-09 -0.73628120E-09  0.22543783E-09 -0.74655868E-09
 -0.30278983E-09  0.13432649E-07 -0.19434056E-09  0.14423967E-08 -0.21703122E-08
  0.54436852E-09  0.13888814E-10  0.12562111E-10 -0.15588062E-09  0.90194929E-09
  0.10622164E-07 -0.64183713E-09  0.26758721E-09  0.81680192E-09  0.32874781E-09
  0.46606632E-09 -0.30731487E-09  0.18978308E-09  0.26515039E-09  0.94817934E-08
 -0.90144764E-09  0.89412616E-09 -0.16683905E-08  0.69884441E-09 -0.21172228E-09
  0.35932252E-09  0.34760813E-09 -0.60920620E-09  0.92447253E-08  0.23372716E-09
  0.71945784E-09 -0.22101326E-08  0.11238066E-08 -0.16810199E-10  0.51487403E-10
  0.12623609E-09 -0.40090119E-09  0.10661488E-07  0.70126172E-09  0.41446345E-09
 -0.14254025E-08  0.70814335E-09  0.39397456E-10 -0.21763500E-09 -0.36092415E-09
  0.25693022E-09  0.13537892E-07  0.12252946E-09  0.11540116E-08 -0.15554021E-08
  0.85897864E-09 -0.36965412E-09 -0.10207041E-09 -0.50967284E-09  0.35698657E-10
  0.52619312E-08  0.80754631E-10 -0.10770902E-07  0.41914328E-07 -0.95917192E-08
 -0.18890695E-08 -0.11112268E-08  0.19773592E-08  0.51849815E-09  0.99232745E-08
  0.51188010E-09  0.83603207E-09 -0.16259477E-08  0.53366286E-09  0.54191111E-10
 -0.15589990E-09  0.61384582E-09  0.84969048E-09  0.14108759E-07 -0.45586649E-09
  0.11130179E-08 -0.21352742E-08  0.74803907E-09 -0.13936994E-09 -0.92031781E-10
  0.10443722E-09  0.13320174E-09  0.12811121E-07 -0.86331677E-09  0.10134712E-08
 -0.11681574E-08 -0.12830481E-09  0.62788002E-09 -0.35271448E-10 -0.14768770E-08
  0.14021319E-07 -0.38477889E-08  0.32471899E-07 -0.11333621E-07 -0.82491552E-07
  0.36065910E-07 -0.16525807E-07  0.21778675E-07  0.71328620E-08 -0.93957070E-08
 -0.35621548E-07 -0.71609465E-08  0.19825270E-08  0.40890364E-07  0.13882089E-07
 -0.12880357E-07 -0.30109559E-08 -0.52580766E-08 -0.19627896E-08 -0.77778729E-08
 -0.11231699E-07 -0.13311070E-07  0.38980281E-08  0.84303810E-09  0.12073837E-07
 -0.10838272E-07  0.10360201E-07  0.36414480E-07 -0.60022801E-08  0.31036919E-08
  0.30211198E-07 -0.91451336E-07  0.18642620E-07  0.38816075E-07 -0.28970511E-08
  0.18191440E-08  0.20973377E-07 -0.37422465E-08  0.16574426E-07  0.13036810E-08
  0.11707860E-07  0.23325510E-08 -0.37540479E-07  0.49365273E-08 -0.10667720E-07
  0.95199325E-08 -0.36854323E-07  0.10185531E-08  0.20240842E-07 -0.13904826E-06
  0.17322536E-07  0.20451835E-07 -0.14373804E-07  0.54466546E-08 -0.51983432E-07
 -0.31921104E-09  0.13220942E-07 -0.25435577E-07  0.11485493E-07  0.13316355E-07
  0.39610865E-07  0.33641720E-07  0.35990806E-07 -0.15930308E-07  0.31357139E-07
 -0.66137200E-08 -0.11867198E-07  0.10049573E-07 -0.33871150E-09 -0.92757801E-08
  0.53784156E-08 -0.20956889E-07 -0.11767241E-07 -0.29362023E-07 -0.15085291E-07
  0.41471741E-07 -0.60116377E-07  0.20760123E-07  0.89437669E-09  0.13300633E-07
  0.79468576E-08  0.13622323E-07 -0.71830292E-07  0.16247806E-07  0.34921335E-07
 -0.46164683E-07  0.25115175E-07  0.11514795E-07 -0.60080658E-08 -0.25694396E-07

 -0.28917790E-10  0.27949235E-08  0.16283453E-09  0.71955430E-09  0.20170014E-09
  0.30678824E-09  0.42229038E-09 -0.38534760E-11  0.12284729E-10  0.57732337E-09
  0.11506356E-08  0.29017725E-09  0.75469683E-09  0.88759418E-09 -0.63508424E-10
 -0.27347199E-09 -0.17069981E-09  0.58596122E-09 -0.43973169E-09  0.15008974E-08
  0.19404347E-08  0.86653345E-09  0.80785652E-09  0.50905569E-11  0.16365630E-09
 -0.90373316E-10 -0.10749672E-09  0.53327351E-10  0.97476962E-09  0.14853166E-08
  0.71543259E-09  0.95303039E-09 -0.27360024E-09  0.28427112E-10 -0.62277740E-10
 -0.22126828E-09  0.71328074E-09  0.89152516E-09  0.20687544E-09  0.62841086E-09
  0.45041594E-09 -0.13734266E-08  0.11043084E-09  0.18895164E-09  0.14524532E-09
 -0.62379508E-09  0.16278808E-08  0.12838009E-08  0.64997713E-09  0.85751949E-09
 -0.13474018E-08 -0.11328028E-09 -0.15146597E-09  0.29078946E-09 -0.47089808E-09
  0.59272839E-09 -0.56577032E-09  0.70118744E-09  0.56870567E-09 -0.22738645E-10
 -0.57661587E-10  0.44354020E-09 -0.21351738E-09 -0.19389319E-09  0.10017378E-08
  0.44680046E-09  0.11214070E-08  0.61419820E-09 -0.14362303E-08 -0.23008031E-10
 -0.63751103E-09  0.32286925E-09  0.75715992E-09  0.15425482E-08  0.32635203E-08
  0.80595382E-09  0.12914084E-08 -0.15668748E-08  0.83465470E-10 -0.28807447E-09
 -0.14928921E-09 -0.24511879E-09  0.10957529E-08 -0.39825421E-09  0.10789478E-09
  0.10862296E-08  0.16550458E-09 -0.21830940E-09  0.17218685E-09  0.51088406E-09
 -0.16205494E-09  0.16562253E-08 -0.12262120E-09  0.98330746E-09  0.10854827E-08
 -0.17729236E-08 -0.77287137E-10 -0.26105204E-09  0.54017523E-09  0.53764071E-09
  0.17801400E-08 -0.11571249E-08 -0.91584965E-08 -0.95917192E-08  0.35552396E-07
  0.40512715E-09  0.19451960E-08  0.84269901E-09 -0.32129222E-09  0.21764683E-08
  0.12706634E-08  0.68587330E-09  0.67819721E-09  0.18039796E-09 -0.20703730E-09
  0.56110898E-09 -0.62707364E-09  0.90282263E-09  0.18998007E-08 -0.45048058E-10
  0.10964552E-08  0.87161222E-09 -0.81569890E-09 -0.18981370E-09 -0.35543159E-09
 -0.11925180E-09 -0.95543599E-10  0.17137840E-08 -0.13481613E-08  0.74152042E-10
 -0.32871952E-09  0.27479968E-08  0.17063181E-09  0.78096538E-11 -0.36089627E-09
  0.22454196E-07 -0.11464879E-07  0.21472475E-07 -0.23781363E-07 -0.10941886E-07
 -0.89541677E-07 -0.29191133E-07  0.30547156E-07  0.53723779E-07 -0.12073813E-07
 -0.46135771E-08  0.27633739E-07 -0.16860308E-07  0.15357131E-07 -0.18781951E-07
  0.15815038E-07  0.90993137E-08 -0.14553862E-07 -0.61346707E-08  0.37013620E-07
  0.40156323E-07 -0.57957710E-08  0.96556240E-08  0.26186173E-07  0.12803290E-07
  0.26355542E-07  0.18770740E-07 -0.12010330E-07 -0.33582508E-07 -0.40425196E-07
 -0.38125258E-08  0.28681816E-07  0.30283417E-08 -0.16634345E-07 -0.56839226E-08
  0.10892233E-07 -0.24856326E-07 -0.10932525E-07 -0.56746992E-09  0.45794808E-07
 -0.34108804E-08 -0.25764205E-07  0.11718593E-07 -0.97689725E-08 -0.53972584E-08
 -0.18897833E-07 -0.12287651E-07  0.27569182E-07 -0.10293881E-07  0.38209808E-07
  0.12838540E-07  0.81280932E-09 -0.78263866E-08 -0.44217355E-07 -0.63467518E-08
  0.66837083E-08 -0.14604090E-07  0.10570276E-07 -0.63253486E-08  0.11762504E-07
 -0.25908898E-07 -0.69493174E-08 -0.14931524E-07  0.37610814E-08  0.51517695E-08
 -0.15028770E-08  0.28931366E-08 -0.16264387E-07  0.33375251E-08  0.33175754E-08
  0.32129576E-07  0.23967690E-07  0.19560897E-07  0.73401700E-08 -0.10530480E-08
 -0.42852720E-07 -0.11279304E-10  0.61718969E-07  0.13249970E-07 -0.66927584E-09
 -0.31139249E-07  0.79741679E-09 -0.57079469E-08 -0.38530486E-08 -0.82915624E-08
  0.37419983E-08 -0.19342779E-07  0.51724896E-08  0.93518621E-08 -0.57949135E-08

 -0.20379232E-08  0.17776576E-09  0.15395023E-08 -0.12979515E-09 -0.27870933E-09
 -0.27933375E-10  0.17486746E-09  0.16990531E-09 -0.33311063E-09  0.34551105E-09
  0.23623000E-09  0.46587423E-09  0.51744278E-10  0.49672922E-09 -0.21279124E-09
 -0.48405879E-09 -0.49801985E-09  0.20533822E-09 -0.97588094E-09 -0.20318258E-08
 -0.69313169E-09 -0.68924439E-09 -0.52019251E-09  0.13062042E-09 -0.14926712E-09
 -0.35464947E-09  0.10299010E-09 -0.96531226E-09  0.68747333E-09  0.68499675E-09
  0.98861365E-10  0.21926813E-09 -0.72114116E-11  0.20352052E-09  0.29212317E-09
  0.39268973E-09 -0.13382292E-08 -0.27242570E-08 -0.35772580E-09 -0.13341705E-09
 -0.56487190E-09  0.15838348E-09  0.18171356E-08  0.14444290E-09 -0.95079542E-10
 -0.68591408E-10 -0.86624823E-09 -0.53191392E-09 -0.65746839E-09  0.25664210E-10
 -0.12235152E-09 -0.44530602E-09 -0.16746270E-09 -0.30843850E-09  0.13299237E-09
 -0.25300306E-09 -0.12418393E-09  0.56377694E-09  0.64117948E-09 -0.48573950E-10
  0.34981877E-09  0.82054876E-10  0.18087669E-09  0.32706034E-09  0.30560597E-09
  0.17173485E-09 -0.42437767E-09 -0.82573149E-09  0.15773407E-09  0.64257639E-09
 -0.13575221E-09  0.46122879E-10  0.10330289E-08 -0.31938221E-09  0.29336801E-09
 -0.86277081E-09 -0.10121897E-08  0.74590544E-10 -0.14103569E-08  0.10310882E-09
  0.28843824E-09  0.63178345E-10 -0.84327010E-10 -0.18112607E-09  0.60977287E-09
 -0.23784990E-12  0.14060314E-09  0.25267233E-09  0.17958027E-09  0.44077126E-09
 -0.41820563E-09  0.21373444E-08 -0.68103181E-10 -0.10296753E-08  0.14439121E-09
  0.26965224E-09 -0.67146300E-09 -0.15172314E-09  0.73726545E-10  0.23097489E-08
  0.81654102E-09 -0.11463507E-09 -0.22477402E-08 -0.18890695E-08  0.40512715E-09
  0.28440685E-07  0.87255662E-09 -0.98669687E-09  0.96228011E-09 -0.17277184E-08
 -0.10303968E-11  0.59647059E-09  0.99060840E-09 -0.17891167E-09 -0.42853415E-09
  0.34301229E-10  0.39958002E-09 -0.12635264E-09 -0.69369556E-09  0.36974950E-09
 -0.35268588E-09 -0.14067821E-09  0.12390983E-09 -0.44655889E-09 -0.93220720E-10
  0.15302707E-09 -0.17395592E-08 -0.13801585E-09  0.41806429E-09  0.68678326E-09
  0.87151485E-09 -0.18344727E-09 -0.11055928E-08  0.32407789E-09 -0.15761871E-09
  0.23099265E-07  0.25703705E-07 -0.19350044E-07  0.51140207E-07 -0.28017888E-07
 -0.51875603E-08 -0.12626823E-07  0.30722629E-08  0.91875097E-08  0.34503856E-07
  0.50483296E-08  0.15788317E-08  0.26868269E-08  0.74354570E-08  0.57127074E-08
  0.95743895E-08 -0.10755740E-07  0.25747818E-08 -0.12875921E-07  0.88951149E-08
 -0.40876924E-08  0.37886198E-07  0.68958997E-08  0.20220575E-08 -0.10027901E-07
 -0.39703107E-08 -0.15737638E-07 -0.28448443E-07 -0.24053904E-09 -0.19556307E-07
  0.85430202E-08  0.10305300E-07  0.14946368E-07  0.27405592E-07 -0.53199869E-09
 -0.16011500E-07 -0.41011796E-08 -0.58151425E-07 -0.12384648E-07  0.38665630E-07
  0.20656076E-07 -0.76455168E-08  0.72337332E-07 -0.14813597E-08  0.74943605E-09
 -0.29541070E-07 -0.17559433E-07 -0.21932114E-07 -0.22998861E-07  0.33746686E-07
 -0.78429884E-08 -0.61007005E-09 -0.11737398E-08 -0.12073334E-07 -0.29460111E-07
  0.49560187E-08 -0.14644946E-07  0.34731388E-07  0.10898784E-07 -0.39642175E-08
 -0.65816071E-08  0.20751736E-07  0.27188306E-07 -0.29408298E-07 -0.15580698E-07
 -0.53736098E-08 -0.25411418E-07 -0.11753063E-07  0.78901743E-08  0.46343187E-09
  0.17596924E-07  0.20533006E-07 -0.18707812E-07  0.24376052E-07 -0.22961621E-07
 -0.19572989E-07  0.18203034E-07  0.75985409E-08  0.29117068E-07  0.20453583E-07
 -0.21721659E-07  0.30624610E-07  0.27030387E-07  0.94491713E-08 -0.46748672E-07
 -0.56886193E-07  0.17125498E-07  0.57848349E-07 -0.10719528E-08 -0.22793889E-07

  0.49194960E-09 -0.15854665E-08  0.23739137E-09  0.51414751E-09 -0.55485959E-09
  0.11466679E-09  0.88389288E-09 -0.27393897E-09  0.21620474E-09  0.69267313E-09
 -0.34842974E-08  0.34261570E-09 -0.23737703E-09 -0.18919673E-09 -0.10702080E-09
 -0.10873539E-09 -0.43456257E-09 -0.34437107E-10  0.70124792E-09 -0.22760546E-08
 -0.79831473E-09  0.16524246E-09  0.35411407E-09 -0.16484689E-09 -0.30210125E-09
 -0.51254636E-09 -0.12713387E-10 -0.41552621E-09 -0.30143085E-08  0.25799761E-10
 -0.34181315E-09  0.34752919E-10 -0.15458629E-09 -0.26478891E-09 -0.23165151E-09
 -0.15492121E-09 -0.66360434E-09 -0.24715177E-08  0.86606111E-09 -0.68631652E-09
  0.21355853E-09 -0.11163007E-10 -0.10255536E-09  0.36294127E-10 -0.46383548E-09
 -0.46728372E-09 -0.21794467E-08 -0.34983867E-09  0.74993820E-10  0.14798740E-09
 -0.11110239E-11 -0.67050080E-10 -0.15981722E-08 -0.22741236E-10 -0.11329045E-08
 -0.28221290E-08 -0.29868946E-10  0.61616089E-10 -0.23036264E-09  0.29608984E-09
 -0.22679996E-09 -0.90374696E-10  0.37361001E-09  0.57187099E-09 -0.26499691E-08
 -0.32363408E-09  0.34445348E-09  0.27459500E-09 -0.56287781E-09  0.10354566E-09
 -0.12539852E-08 -0.37452456E-09 -0.64170800E-10 -0.27283668E-08  0.45877547E-09
  0.53330446E-09 -0.12578386E-09 -0.27242463E-09 -0.11022131E-09 -0.12204321E-08
  0.36250570E-09 -0.27018574E-09 -0.28524921E-08 -0.63210089E-09  0.27696766E-09
 -0.30064588E-09  0.92101925E-10 -0.13242240E-09 -0.45545878E-10 -0.29706471E-09
  0.96518810E-09 -0.28536022E-08 -0.70151668E-10  0.63545172E-09 -0.72566826E-10
 -0.28108538E-09 -0.28516831E-09 -0.92311027E-09  0.13928003E-09 -0.10655015E-08
 -0.29118491E-08 -0.40742194E-09 -0.12335849E-08 -0.11112268E-08  0.19451960E-08
  0.87255662E-09  0.23713240E-07 -0.11661479E-08  0.13962840E-10 -0.31698458E-08
  0.28316569E-09 -0.21169869E-09  0.12413293E-10  0.33281767E-09 -0.14575115E-09
 -0.77925198E-10 -0.34589818E-09  0.66195222E-09 -0.22143592E-08  0.46459953E-09
  0.95291473E-09 -0.14788983E-09 -0.34370522E-09 -0.46759588E-10 -0.76935904E-09
 -0.31154019E-09 -0.16835875E-08 -0.70563565E-09 -0.20648074E-09 -0.73756010E-09
 -0.24359405E-10  0.85429644E-10 -0.17199985E-09  0.40183562E-09  0.66331758E-09
  0.27608576E-07  0.26633084E-08  0.46169060E-07  0.13223336E-07  0.34946017E-07
  0.95905078E-08 -0.51308518E-08 -0.46312146E-07 -0.27716807E-07 -0.18612901E-07
  0.14246913E-07  0.39448527E-08 -0.41303034E-08 -0.20623619E-07 -0.35470425E-08
  0.20178451E-07 -0.16761320E-07  0.10010400E-07  0.16331963E-07 -0.76461829E-08
 -0.69112347E-08 -0.26305247E-07 -0.75121997E-08  0.25139549E-07 -0.33682883E-08
  0.11147721E-07 -0.77399646E-08 -0.13434698E-07  0.27044742E-08 -0.19174623E-07
 -0.30043741E-08 -0.71450934E-08  0.14590372E-08  0.26377906E-08 -0.19691362E-07
  0.15633289E-07  0.59084233E-08  0.20153072E-08 -0.48613156E-07 -0.30857581E-07
  0.98435061E-08 -0.23943259E-08 -0.15627247E-07 -0.24273735E-08 -0.74671785E-08
 -0.24607939E-07  0.20485961E-07  0.19236178E-08 -0.66447381E-08  0.17323560E-07
 -0.12691763E-07  0.14346807E-07  0.39156713E-08 -0.89566060E-08 -0.15229401E-07
  0.11415728E-07 -0.14582830E-07  0.63269029E-08  0.31573754E-07 -0.80885211E-08
  0.37843317E-07  0.37011083E-07 -0.32086951E-07  0.10580115E-07 -0.15656072E-07
 -0.14981566E-07  0.31437652E-07 -0.69691557E-08  0.28064299E-07  0.26766132E-09
 -0.11844284E-07  0.90188872E-08  0.22868070E-07 -0.15766814E-08  0.19117795E-07
 -0.29429926E-07  0.26269702E-07 -0.86647323E-09  0.72611193E-08 -0.21122977E-07
 -0.16281428E-07  0.52155528E-07  0.92665851E-08  0.69604578E-09 -0.54091928E-07
 -0.11785606E-07  0.20139960E-07 -0.47840445E-07 -0.20803254E-07  0.63701812E-08

  0.17285516E-08  0.25481439E-08  0.13764523E-08  0.28473288E-09 -0.54617822E-09
  0.72296045E-10 -0.29410661E-09 -0.29942027E-09  0.24149558E-09  0.71081737E-09
  0.42168328E-08 -0.42613048E-09  0.32180610E-10 -0.78701483E-09 -0.29334862E-09
  0.16557175E-09 -0.12525569E-09 -0.46149849E-09 -0.59955405E-09  0.40525417E-08
 -0.50317501E-09 -0.42041829E-09 -0.18289207E-09  0.25880506E-09  0.11994807E-09
 -0.20242309E-09  0.79546497E-09  0.40674220E-09  0.41696580E-08 -0.94708254E-09
  0.11031510E-09  0.26586529E-10  0.11212429E-09  0.31794644E-09  0.15119125E-09
  0.49131540E-10 -0.44541248E-09  0.24736604E-08  0.78386885E-09 -0.23830911E-09
 -0.76135886E-10  0.12937819E-08 -0.10642220E-09  0.16031788E-09 -0.16449144E-09
 -0.30105095E-09  0.43721862E-08  0.77129250E-09  0.27643166E-09 -0.89102140E-10
 -0.41399100E-09 -0.35245459E-09 -0.52745242E-09 -0.95024378E-09  0.30302561E-10
  0.14654389E-08 -0.45060599E-09 -0.31707931E-09  0.56858847E-09  0.29092366E-09
  0.18255659E-09  0.55533893E-09  0.75259476E-09  0.46170064E-09  0.30733958E-08
  0.75513195E-09 -0.32927738E-10 -0.17571704E-09 -0.77885785E-10 -0.75771893E-10
 -0.12102615E-09  0.36194468E-09  0.60075544E-09  0.44901123E-08  0.17116450E-08
 -0.19705501E-10  0.25307436E-10  0.37473764E-09  0.33527290E-09 -0.70594457E-09
 -0.12611651E-08  0.20581681E-10  0.33511763E-08  0.10441815E-08  0.60707743E-10
  0.30679298E-09 -0.42191178E-09  0.30482462E-09  0.41006327E-09 -0.88676193E-10
  0.11881584E-09  0.35532757E-08  0.43928252E-09 -0.70952538E-10  0.26150075E-09
 -0.93816158E-10 -0.46405919E-10  0.11397809E-09 -0.49986548E-09 -0.33170110E-10
  0.35845118E-08  0.35102899E-08 -0.33611217E-09  0.19773592E-08  0.84269901E-09
 -0.98669687E-09 -0.11661479E-08  0.25519586E-07  0.24350230E-09  0.37901314E-08
  0.39729609E-10  0.22340033E-09  0.40079364E-09 -0.57447742E-09  0.44007141E-09
  0.19315039E-09  0.34327531E-09  0.35664615E-09  0.42551215E-08 -0.11436654E-08
  0.10230017E-09 -0.40725709E-09  0.35594199E-10  0.22724351E-09  0.13859726E-09
 -0.33936829E-09  0.84214061E-09  0.41089259E-08 -0.16378660E-08 -0.39467755E-10
  0.24003907E-10  0.40913238E-09 -0.27496512E-09  0.17047573E-09  0.25450228E-09
 -0.15171265E-07  0.55547769E-07  0.13213581E-07  0.45316829E-08 -0.93874863E-08
  0.21546915E-07  0.28322829E-08  0.43771164E-08 -0.26837559E-08 -0.58887890E-08
 -0.33406402E-07  0.50313845E-07 -0.13791176E-07 -0.23734264E-08  0.17272612E-07
  0.11744829E-07  0.17359900E-07  0.69306232E-08 -0.93265148E-08  0.21533447E-07
 -0.10207929E-07  0.94525341E-08  0.14977117E-08 -0.18690061E-07 -0.30208520E-08
  0.16688606E-07  0.21623106E-07  0.41897763E-08 -0.31157710E-07 -0.43777130E-07
 -0.69423128E-09 -0.81703222E-08  0.13209541E-07 -0.14386556E-07  0.30793765E-07
 -0.58026594E-08  0.11810099E-08 -0.40426411E-07  0.20324658E-07  0.17602265E-07
 -0.40756578E-09 -0.94260562E-08 -0.37195918E-08  0.17808985E-07  0.19986570E-07
 -0.15751385E-07 -0.20290149E-07 -0.15093461E-07 -0.11637635E-07 -0.23839003E-07
  0.34142498E-07 -0.13246168E-07 -0.79029232E-08  0.31032643E-07 -0.17753806E-07
  0.16459737E-08 -0.28284898E-07 -0.93008649E-08  0.49232694E-08  0.32969947E-07
  0.30987242E-07 -0.10239516E-07  0.31236278E-08 -0.79928218E-08 -0.16464791E-08
 -0.26985156E-07 -0.79595695E-08  0.76324358E-08  0.33102326E-07  0.11876705E-07
  0.77545590E-09 -0.17625729E-07 -0.85689503E-08 -0.95091680E-08  0.24214727E-07
  0.30061169E-08  0.20487175E-07  0.11988349E-09 -0.55238346E-08 -0.42229720E-09
  0.32155766E-07  0.55862288E-08  0.42040159E-08 -0.30630765E-07 -0.58657433E-08
  0.28118986E-07  0.10431167E-07 -0.66277271E-08 -0.23897900E-07  0.14117289E-07

 -0.83647480E-09  0.30738737E-08  0.89092044E-09  0.78911276E-09  0.92967647E-10
 -0.94638664E-09 -0.45453601E-09  0.19340637E-09 -0.66065827E-09  0.43097607E-08
  0.34250685E-09  0.16237264E-08  0.11676047E-08  0.64419595E-09 -0.59488018E-10
  0.65856350E-09  0.93958012E-09 -0.20609537E-09 -0.19110001E-08  0.28152133E-08
  0.47666448E-09 -0.19728287E-08  0.20449565E-09  0.70036987E-09  0.77948056E-09
 -0.38676736E-09  0.10770745E-09  0.31844842E-08  0.16549569E-08 -0.55184290E-09
  0.10529653E-08 -0.29166384E-09 -0.97806566E-09 -0.21586146E-09 -0.21055224E-09
  0.11512287E-09 -0.32057645E-08  0.14808379E-08  0.49996935E-10 -0.12596170E-09
 -0.28318907E-09  0.32988674E-09  0.78980418E-09 -0.59071106E-09 -0.24701815E-09
  0.48940811E-08  0.19008518E-08  0.12572702E-08  0.27131410E-08 -0.10006901E-08
  0.39895388E-09 -0.19052041E-08 -0.77345583E-09  0.22192239E-09 -0.12295634E-09
 -0.17512845E-08  0.13914408E-10  0.12210274E-08 -0.78166614E-09  0.11437553E-09
 -0.11476742E-09  0.39220204E-09 -0.21158159E-09 -0.38938989E-08  0.48242209E-09
  0.14630121E-08 -0.95308918E-09 -0.69652321E-10 -0.24092881E-09 -0.13630118E-08
 -0.47607851E-09 -0.57755832E-09 -0.26304402E-08 -0.26835465E-09  0.12661054E-08
 -0.12566665E-08 -0.45376943E-10 -0.34651913E-09 -0.79195221E-09  0.11202505E-08
 -0.30191307E-09 -0.11541961E-08  0.98434699E-09 -0.17785106E-08  0.58818489E-09
 -0.13024740E-09  0.49143414E-09 -0.39136591E-09 -0.10742158E-08 -0.35721694E-09
  0.18588410E-08  0.93151698E-09 -0.12625407E-08  0.22642306E-08 -0.57339676E-09
 -0.34855987E-09 -0.74007985E-09  0.39840735E-09 -0.18532146E-09 -0.32883503E-08
  0.36139930E-08  0.19916285E-08  0.15820381E-08  0.51849815E-09 -0.32129222E-09
  0.96228011E-09  0.13962840E-10  0.24350230E-09  0.12692535E-06 -0.96654308E-08
  0.39557788E-09 -0.55332880E-09  0.64943636E-09 -0.18427200E-09 -0.23393627E-09
 -0.93482963E-09 -0.52046498E-09  0.45215133E-08 -0.49495744E-09  0.59419858E-10
 -0.64108248E-09  0.49014080E-09 -0.19328723E-09 -0.74452878E-09  0.87688274E-09
  0.73225053E-09 -0.73387425E-08 -0.61903151E-09  0.72289835E-09 -0.82806829E-09
 -0.52396541E-09  0.39287394E-09  0.41835022E-09  0.17521169E-10 -0.38843842E-09
  0.10698832E-06 -0.10097434E-06 -0.41451061E-07 -0.19417635E-07  0.62562903E-07
 -0.43660724E-07  0.13594168E-07 -0.53939193E-07  0.48163406E-07 -0.60679149E-08
  0.12072484E-07 -0.80323202E-08  0.17706972E-07  0.27389816E-07 -0.34093905E-07
 -0.60966036E-07 -0.87869322E-07  0.17094911E-07 -0.20097457E-07 -0.31306659E-07
 -0.49904074E-07 -0.19410344E-06 -0.15124092E-07 -0.19756413E-08 -0.55165056E-08
 -0.11167027E-06  0.53369249E-07 -0.20939499E-07 -0.12421215E-07 -0.17467356E-07
  0.70771112E-08 -0.27147577E-07  0.23363466E-07  0.58644119E-07  0.43101430E-07
 -0.22030661E-07 -0.28348797E-06  0.12493478E-06  0.63650607E-07  0.13177146E-07
 -0.23542052E-07  0.28861294E-07  0.13963914E-06 -0.29438678E-07  0.73392326E-07
 -0.72078002E-07  0.89293563E-07 -0.10143850E-06 -0.76348736E-07  0.37305743E-08
  0.72061276E-07  0.13058660E-07  0.16517147E-07 -0.17851662E-07 -0.90024819E-07
 -0.65259549E-07  0.10036552E-06  0.14211186E-06 -0.26710533E-07  0.48869993E-07
 -0.70674717E-07  0.60974391E-08 -0.66877893E-07  0.43781040E-07 -0.28826708E-07
  0.43424647E-07 -0.34415515E-06  0.63298230E-07  0.58617017E-07 -0.29312606E-08
  0.94554643E-07  0.72846246E-07  0.76273750E-07  0.38212581E-07  0.98947436E-07
  0.18294479E-07  0.20596621E-07 -0.50991088E-07 -0.37421093E-07  0.61954805E-07
 -0.48638129E-07  0.18662794E-06 -0.30206397E-07 -0.84466868E-07  0.52604823E-07
  0.50660858E-08  0.29095855E-07  0.43455936E-07  0.13548925E-06 -0.92657882E-07

 -0.13168628E-09  0.21916181E-05 -0.45695195E-08  0.32351540E-08  0.28621604E-08
  0.32934174E-08 -0.60385336E-08 -0.92846294E-09 -0.37847697E-08  0.69583059E-09
  0.21783191E-05 -0.88214398E-08  0.26701863E-08 -0.10966838E-07  0.25660008E-08
 -0.32482773E-08  0.16946512E-08  0.16837800E-08 -0.12191669E-08  0.21898156E-05
  0.67828444E-08  0.29041208E-08  0.73370897E-08 -0.60542977E-09  0.67330948E-08
  0.87248490E-09 -0.76677454E-10  0.65647100E-08  0.21735478E-05  0.21056757E-08
 -0.30321065E-09  0.73507838E-08  0.16386289E-09  0.48410625E-08  0.11941115E-08
  0.81232197E-09 -0.15624761E-08  0.21665199E-05  0.64502807E-08  0.12735472E-08
 -0.29590486E-08  0.57796743E-09  0.44209195E-09  0.24983896E-08  0.17592793E-08
  0.15676760E-09  0.21598132E-05  0.49382522E-08 -0.88877628E-09  0.35079936E-08
  0.12866680E-08 -0.53053359E-09 -0.25397543E-08  0.44793351E-08  0.90469354E-08
  0.21505693E-05 -0.17798985E-08 -0.18890468E-08  0.22691259E-08  0.16335597E-08
 -0.24956677E-08 -0.10522151E-08  0.20376547E-08  0.34067326E-08  0.21714212E-05
  0.68006284E-08 -0.51332283E-08  0.92910455E-08  0.11585315E-08 -0.15773682E-08
 -0.26635945E-09  0.79858133E-09 -0.10155635E-07  0.21465726E-05 -0.73852940E-08
  0.50390573E-08 -0.43968062E-08  0.94323695E-10 -0.71735479E-09  0.15353780E-09
  0.50434944E-09  0.10449711E-07  0.21638144E-05 -0.25388164E-08  0.49919230E-08
 -0.29748116E-08 -0.64152085E-09  0.45288333E-08  0.95409458E-10 -0.28137200E-08
  0.34219328E-08  0.21965973E-05  0.10699410E-07 -0.26920644E-08  0.11292517E-08
  0.33370403E-08 -0.40076367E-08  0.10558974E-08 -0.15385120E-09  0.12254996E-07
  0.21729362E-05 -0.13588981E-08 -0.14810045E-08  0.99232745E-08  0.21764683E-08
 -0.17277184E-08 -0.31698458E-08  0.37901314E-08 -0.96654308E-08  0.22943712E-05
  0.11448608E-08  0.75682819E-08 -0.11830694E-07  0.49742782E-09 -0.37346206E-08
  0.15349005E-08 -0.24681777E-08  0.16796565E-08  0.21778084E-05 -0.55305723E-08
  0.39552241E-08  0.32316655E-08  0.23684057E-08 -0.18957823E-08 -0.18863723E-08
  0.46918006E-08  0.38639937E-08  0.21745699E-05 -0.69084198E-08  0.38056354E-08
 -0.59216917E-08  0.23503636E-08 -0.28822805E-09 -0.13625224E-08 -0.49992239E-08
 -0.53013104E-06 -0.96338374E-05  0.16108412E-05 -0.11969622E-06  0.19697272E-05
 -0.24646434E-07  0.16241280E-06 -0.47214891E-07 -0.97272187E-07  0.15703178E-05
 -0.21865077E-05 -0.53094500E-06  0.25126320E-06 -0.46328822E-07  0.67441944E-07
  0.63647708E-06 -0.41276279E-06 -0.39826480E-07  0.17656173E-05 -0.32481032E-05
 -0.22745513E-06  0.61052876E-06 -0.47589687E-06 -0.41359983E-07 -0.62832932E-07
  0.76731351E-06 -0.13130530E-05  0.42793273E-06 -0.91339970E-06  0.10596610E-06
 -0.76384592E-07 -0.78395720E-07  0.12920274E-06 -0.36314562E-06  0.43101157E-06
 -0.32252524E-06  0.14841613E-05 -0.35195595E-05 -0.68971289E-07 -0.53441804E-06
  0.11036980E-06  0.60222411E-06 -0.50658526E-06 -0.20656123E-06 -0.49783373E-06
  0.17523640E-06 -0.23781153E-05  0.51526290E-06  0.38790843E-06 -0.11447030E-05
  0.29173534E-06  0.82906696E-06 -0.20453582E-06  0.45728795E-06  0.18553760E-05
 -0.37714491E-05  0.47905834E-06  0.13269992E-06 -0.98505774E-06  0.59098451E-06
 -0.18997274E-06  0.91084347E-07  0.59469790E-06  0.11327824E-05 -0.24065746E-05
 -0.45705508E-06 -0.22790081E-06 -0.63995182E-06 -0.86416067E-08  0.20111675E-06
  0.14857634E-06 -0.52212719E-06  0.94762601E-06 -0.31213421E-05 -0.62386132E-06
 -0.40605356E-06  0.19851586E-06  0.66427702E-06  0.52362049E-06 -0.50066396E-06
  0.19662830E-06  0.38166257E-07 -0.15294055E-05  0.51671876E-06  0.36121055E-07
  0.52598409E-06  0.26488233E-06 -0.67724062E-06  0.81795338E-06 -0.96279247E-06

  0.75394613E-09 -0.10850082E-08 -0.30196219E-08  0.21420260E-09 -0.56521667E-10
  0.87206520E-09 -0.53815352E-09 -0.77952367E-09  0.35458219E-09  0.99534389E-09
  0.26238921E-10  0.87512833E-09  0.77570344E-09 -0.23759087E-10  0.46220233E-09
 -0.14748028E-09  0.49377868E-09 -0.51325561E-10  0.95143446E-09  0.10050000E-08
 -0.79961301E-09 -0.10126215E-09  0.16031339E-09 -0.38878298E-09  0.38264695E-09
  0.44848371E-09 -0.17885765E-09 -0.21142143E-09  0.29843801E-09  0.25084773E-09
  0.21659755E-09  0.73430631E-10 -0.23966139E-09  0.87324480E-11 -0.99001457E-09
 -0.59537677E-09  0.37742433E-09  0.16514277E-08  0.28657100E-09  0.16517504E-09
  0.94564520E-09 -0.23086253E-08 -0.17067802E-10  0.45464044E-09 -0.16716988E-10
  0.15263814E-08  0.41392039E-08 -0.13209724E-08 -0.11644615E-08  0.77335434E-09
  0.10723464E-08  0.22997805E-09  0.15057544E-08 -0.16026265E-08  0.67925103E-09
  0.71612431E-09  0.11720147E-08  0.34108545E-09  0.27861856E-09 -0.38082124E-09
 -0.15079387E-09  0.27929442E-09  0.60461875E-09  0.12905342E-08  0.87652425E-10
 -0.78566239E-11 -0.21474527E-09 -0.52484365E-09 -0.37550339E-10 -0.43384986E-09
 -0.66991564E-09 -0.37081335E-09  0.24290313E-08 -0.69881387E-10 -0.30833460E-08
  0.97506684E-09  0.63497907E-09  0.47350840E-10 -0.32139494E-09 -0.88254801E-09
  0.10531594E-09 -0.11371281E-08 -0.16712069E-08 -0.27466935E-08 -0.89789440E-09
 -0.12500092E-08  0.19920001E-08 -0.38623393E-09  0.10568195E-08  0.55448088E-09
 -0.14062138E-08  0.22610338E-08 -0.91899115E-09  0.57535778E-09  0.55033150E-09
 -0.51931443E-09  0.39249529E-10  0.24184037E-09 -0.70930713E-09  0.17070692E-08
  0.25804330E-08 -0.55921771E-08 -0.69835996E-09  0.51188010E-09  0.12706634E-08
 -0.10303968E-11  0.28316569E-09  0.39729609E-10  0.39557788E-09  0.11448608E-08
  0.95127353E-07 -0.58903887E-09  0.93640218E-09  0.39804603E-10 -0.11612893E-08
 -0.76785051E-10  0.13013772E-08  0.66062882E-10  0.30880469E-09  0.89271080E-09
  0.11230359E-08 -0.55767241E-09 -0.31362047E-10  0.64114594E-09 -0.53506927E-09
  0.11001453E-08  0.52570641E-09 -0.20685234E-09 -0.13950784E-08  0.10669534E-08
 -0.57571776E-10 -0.22707350E-08 -0.54059821E-09  0.34507457E-09  0.88552722E-09
 -0.24991921E-07 -0.10937522E-06  0.13664750E-06 -0.16732127E-07  0.86241109E-07
 -0.17216493E-06  0.34850432E-07  0.93007080E-10  0.72926438E-07  0.49534815E-08
 -0.22963185E-07  0.31614546E-07 -0.16481100E-07  0.53373538E-08  0.17781332E-07
  0.15409710E-07 -0.38504117E-07  0.31397861E-07 -0.22957194E-07  0.66037459E-07
  0.34778400E-07  0.71751214E-08  0.20335139E-07 -0.14441739E-06  0.40762500E-07
 -0.87510263E-07  0.83711814E-07  0.14945131E-07  0.39270523E-07 -0.12051535E-06
  0.71962982E-07  0.62885817E-08 -0.13116973E-06 -0.12801914E-07  0.29260488E-07
  0.75377379E-07  0.54404894E-07  0.11850897E-07  0.11322201E-07 -0.10707023E-06
  0.76353221E-07  0.55576075E-07  0.57585048E-07  0.47060203E-07  0.10412889E-06
 -0.93970460E-07  0.27466644E-07  0.39287597E-07  0.29922760E-07  0.50244796E-07
 -0.80298902E-07  0.13465316E-07  0.96133290E-07 -0.90236546E-07  0.78462039E-07
  0.93617253E-08 -0.37885557E-07 -0.20918327E-07 -0.58765608E-09  0.66758743E-07
 -0.33220018E-07  0.88608981E-07 -0.83248454E-08  0.55861438E-07 -0.51742339E-07
 -0.16583171E-06  0.64810634E-07  0.10634252E-07 -0.44974286E-07  0.35962638E-07
  0.34394542E-07 -0.23729633E-07  0.88014369E-07 -0.26129124E-07 -0.65449290E-07
  0.98544409E-08 -0.22201908E-07  0.61407179E-07 -0.30491534E-07 -0.30904156E-07
 -0.11523766E-07 -0.87171043E-07  0.45036353E-07  0.97729231E-07  0.66744560E-07
  0.19946681E-09  0.12218195E-07 -0.69142486E-07  0.69675395E-07  0.37470638E-07

  0.14201450E-08  0.64007421E-08  0.37175340E-09 -0.96886753E-09  0.77547483E-09
  0.86855305E-09  0.30472083E-09  0.54489562E-09 -0.34154905E-09 -0.35682549E-09
  0.63231938E-08  0.32297988E-09 -0.12682570E-09  0.97431188E-09  0.61663191E-09
 -0.69286328E-09 -0.29799883E-09 -0.33284130E-11 -0.37454309E-08  0.63870451E-08
  0.75782763E-09  0.44740842E-09  0.10532558E-08  0.12402145E-08  0.15134128E-09
 -0.37849314E-09  0.23211635E-09  0.21049441E-08  0.61443818E-08 -0.95401501E-09
  0.32432520E-09  0.10439801E-08  0.35400702E-09 -0.11430143E-08  0.15705158E-09
  0.48405507E-09 -0.34743707E-08  0.47412063E-08  0.63058149E-09 -0.14087986E-08
  0.10025434E-08  0.13126228E-08 -0.37183992E-09 -0.20469442E-09 -0.15914928E-09
  0.16245086E-08  0.44103497E-08  0.11586751E-08  0.74775309E-09  0.76003239E-09
  0.35587172E-11 -0.63305915E-09  0.63194484E-09  0.42672632E-09  0.19638720E-08
  0.40722364E-08 -0.63214233E-09 -0.16743196E-10  0.81636456E-09  0.56364075E-09
 -0.39504244E-09  0.18151740E-09  0.12679457E-09  0.37917893E-09  0.54891180E-08
 -0.31635113E-09 -0.21249212E-08  0.81685049E-09  0.94505081E-09 -0.89969291E-09
  0.30701519E-09  0.23595384E-09 -0.17358885E-08  0.75846958E-08 -0.10492634E-08
 -0.22621014E-08  0.63193084E-09  0.93844036E-09  0.55163254E-09  0.11745635E-09
 -0.89716022E-10  0.16259545E-08  0.52140276E-08  0.29753047E-11 -0.16441148E-09
  0.29146457E-09  0.56320446E-09 -0.39915925E-09 -0.85032731E-10 -0.12673866E-09
 -0.11810092E-08  0.45790113E-08  0.18297439E-09 -0.14825136E-08  0.99269384E-09
  0.10252763E-08 -0.89775541E-10 -0.44916632E-09  0.12857797E-09 -0.93363846E-09
  0.81875993E-08 -0.94815704E-09 -0.19203479E-09  0.83603207E-09  0.68587330E-09
  0.59647059E-09 -0.21169869E-09  0.22340033E-09 -0.55332880E-09  0.75682819E-08
 -0.58903887E-09  0.47846606E-07 -0.10536292E-07 -0.87966682E-08 -0.46923010E-08
 -0.23371210E-08  0.38704429E-09 -0.31558543E-08  0.63643540E-08 -0.98472776E-09
 -0.71909233E-09  0.59945113E-09  0.33231535E-09  0.49219609E-09  0.74542134E-10
 -0.37537472E-10  0.12943677E-08  0.72139558E-08 -0.41027896E-09 -0.15587904E-08
  0.99122303E-09  0.78371920E-09  0.51527767E-10  0.32238153E-09 -0.22331863E-09
  0.31364677E-07 -0.35093601E-07  0.34238283E-08  0.55644428E-07  0.21128671E-07
  0.10174376E-08  0.11725536E-07  0.82485239E-08 -0.46821579E-08 -0.22709269E-07
  0.10708206E-07 -0.19873125E-07  0.59396934E-07  0.13042460E-07 -0.12622125E-07
  0.32941536E-08  0.34127731E-08 -0.29499727E-08  0.15113937E-07 -0.18476109E-08
  0.60772416E-08  0.65295064E-07 -0.34506628E-07 -0.21038365E-07  0.31359942E-07
  0.86398878E-08 -0.52564217E-08 -0.20846005E-07 -0.60575456E-08 -0.10136433E-07
 -0.85659833E-07  0.25867505E-07  0.43095244E-08 -0.80466680E-08  0.55417358E-07
  0.19697107E-07  0.47441107E-07 -0.35330660E-07  0.31710421E-07  0.58268003E-07
 -0.13936491E-07  0.45092991E-07 -0.58313749E-07  0.74612399E-07 -0.21448734E-08
 -0.27181392E-07  0.38549146E-09 -0.41952843E-07 -0.18664786E-07  0.18637992E-07
  0.20347419E-07 -0.22395988E-07  0.26307702E-07 -0.97991227E-08  0.24213673E-08
 -0.14910622E-07 -0.14166828E-07  0.88739025E-07  0.18780034E-08  0.33149676E-07
 -0.25427346E-07 -0.32792851E-07  0.12667482E-07  0.29890803E-07 -0.50518529E-08
 -0.78138767E-08 -0.43086410E-07 -0.24533092E-07  0.15719098E-07  0.55793219E-07
  0.20160693E-07  0.28211523E-07  0.15912570E-07 -0.40632925E-07 -0.22468700E-07
  0.51433149E-07  0.57726740E-08  0.25444443E-08 -0.51126084E-07 -0.56156953E-08
 -0.13426222E-08  0.13023580E-07  0.37150920E-07 -0.19779851E-08 -0.60271359E-07
 -0.45510539E-08  0.58311695E-07 -0.42124216E-07  0.14455074E-07 -0.20157619E-07

 -0.12961918E-09 -0.55297041E-08 -0.75229194E-10  0.88356423E-09 -0.23441799E-08
  0.78860951E-09  0.42549418E-09 -0.15181877E-11  0.98745495E-09  0.38410663E-09
 -0.74143544E-08  0.29512145E-09  0.82508458E-09 -0.28895213E-09  0.64939217E-09
  0.37720687E-09  0.21758186E-09 -0.30953458E-10  0.11567784E-08 -0.98103717E-08
 -0.54140887E-10  0.75630293E-09 -0.17726088E-08  0.75427957E-09 -0.53593821E-09
  0.49489409E-10 -0.35809240E-09 -0.31846160E-09 -0.78348181E-08 -0.78157935E-10
  0.67528401E-09 -0.16182609E-08  0.92523774E-09 -0.29238533E-10 -0.17778509E-09
 -0.20174666E-09  0.55640797E-09 -0.85681441E-08  0.95375624E-09  0.84118862E-09
 -0.21454929E-08  0.13469773E-08 -0.86265989E-10  0.16053395E-09  0.94593669E-09
 -0.67832407E-09 -0.64201371E-08 -0.45767170E-09  0.74200428E-09  0.10580734E-09
  0.42066830E-09 -0.11259137E-08  0.15549198E-09 -0.13798314E-08 -0.30434655E-09
 -0.94369016E-08  0.18881408E-09  0.75973339E-09 -0.19432094E-08  0.70996646E-09
  0.52176687E-09  0.23539266E-11 -0.22054956E-09  0.11917383E-08 -0.92068959E-08
  0.12108300E-09  0.60491043E-09 -0.16019767E-08  0.75365717E-09 -0.56440644E-09
 -0.50554842E-10 -0.16934245E-09  0.25408685E-09 -0.90877073E-08 -0.21994952E-09
  0.50882576E-09 -0.80440192E-10  0.49213549E-09 -0.50622601E-09  0.16559701E-09
 -0.55409088E-09 -0.96660681E-10 -0.89265765E-08 -0.88957555E-09  0.53957781E-09
 -0.20037523E-08  0.14609402E-08 -0.12038193E-09  0.76091003E-10 -0.77298358E-09
 -0.57602830E-09 -0.82378466E-08  0.66111229E-09  0.65003516E-09 -0.13326373E-08
  0.58824117E-09 -0.50437946E-09 -0.26981119E-09  0.95520054E-10  0.52367962E-09
 -0.11057422E-07 -0.69862449E-10  0.10593752E-08 -0.16259477E-08  0.67819721E-09
  0.99060840E-09  0.12413293E-10  0.40079364E-09  0.64943636E-09 -0.11830694E-07
  0.93640218E-09 -0.10536292E-07  0.43161888E-07 -0.88407660E-08 -0.40116268E-08
 -0.80486120E-09  0.13976278E-09 -0.18782599E-09 -0.63573982E-08  0.78933507E-09
  0.55393357E-09  0.17987766E-09  0.37089366E-09  0.42516211E-09 -0.76378674E-10
  0.18208524E-09 -0.27384466E-09 -0.11003426E-07  0.18929742E-09  0.95417357E-09
  0.48432920E-11  0.41627719E-09  0.65276467E-10 -0.76361258E-10  0.74600260E-10
 -0.23235163E-07  0.37885897E-07 -0.25719987E-07  0.19337093E-07 -0.12309708E-06
  0.86112971E-08 -0.56717361E-07 -0.10358525E-07 -0.52935055E-08 -0.84156549E-09
  0.17948414E-07 -0.59292504E-08  0.16016417E-07 -0.10843879E-07  0.26396712E-07
  0.13064274E-07  0.83407111E-09  0.11379283E-07  0.13931737E-08  0.22963922E-07
 -0.23265195E-07 -0.25579510E-07 -0.37482398E-08 -0.14201304E-07  0.70467171E-07
 -0.16607444E-07  0.72566201E-08 -0.92037164E-08  0.43921173E-08 -0.15194171E-07
  0.14342779E-07  0.37876190E-07 -0.15805309E-07  0.18887834E-08 -0.57706054E-08
 -0.85612864E-08 -0.10080515E-07  0.51467669E-07 -0.12570164E-07 -0.51130755E-07
  0.24828446E-07 -0.16442534E-07  0.55824529E-07 -0.52640989E-07  0.61420867E-07
 -0.13971931E-07 -0.14466970E-07 -0.65134154E-08  0.16171073E-08 -0.35107904E-07
  0.29854066E-07 -0.16988096E-07  0.18431370E-08  0.35165816E-07 -0.23972543E-07
 -0.10492233E-07 -0.92436733E-08 -0.21286630E-07 -0.42800507E-07  0.24715161E-07
  0.14576314E-07  0.12250565E-07 -0.14622524E-07  0.13824291E-07 -0.70925668E-08
 -0.27915588E-07 -0.20166670E-07  0.79973293E-08  0.23805329E-08  0.38281901E-07
  0.22486270E-08 -0.11750611E-07 -0.40552426E-07  0.66801361E-07 -0.11279748E-07
  0.10885130E-07 -0.38453960E-07  0.30646979E-07 -0.11710702E-07 -0.33345030E-08
  0.16046563E-07 -0.41977610E-08 -0.38685214E-07  0.32523764E-07  0.40630079E-08
 -0.70654750E-07  0.16091247E-07 -0.53729234E-08 -0.11846571E-08  0.33457610E-07

 -0.10105888E-08 -0.51363627E-09  0.14304268E-08  0.79652792E-09  0.91876339E-09
 -0.61746466E-09 -0.38400749E-09  0.23532492E-09 -0.20324608E-09  0.10512030E-09
 -0.14461048E-09 -0.53115804E-09  0.64160850E-09  0.85646866E-09 -0.78726515E-09
 -0.48785738E-10 -0.28008023E-09  0.27033011E-09  0.17069987E-08 -0.79288475E-10
 -0.30413055E-09  0.15198325E-08  0.64796437E-09 -0.19155902E-08  0.20871520E-09
 -0.49508500E-09 -0.28785216E-09 -0.67630488E-10 -0.29514965E-09 -0.13663757E-09
  0.37344084E-09  0.71982704E-09  0.93463284E-10  0.33192455E-09  0.29573513E-09
 -0.15092829E-09  0.71061944E-09 -0.14742303E-10 -0.74075671E-09  0.96972403E-09
  0.10072024E-08 -0.20809360E-08  0.35074418E-09 -0.29828238E-09  0.26768513E-09
  0.12525639E-09  0.76989357E-10  0.15198749E-10 -0.49433720E-10  0.56027255E-09
  0.70183966E-09  0.63887450E-10  0.19285240E-09 -0.68445105E-09  0.54496480E-09
  0.11761521E-08  0.92237909E-10  0.44117572E-09  0.70350853E-09 -0.12220873E-08
 -0.90472044E-10  0.40538863E-10 -0.20712306E-09 -0.63016904E-09  0.32158564E-09
 -0.45729990E-10  0.10250476E-08  0.80709918E-09 -0.88013177E-09  0.28383078E-09
  0.46626984E-10 -0.16997947E-09  0.20578848E-09 -0.26931038E-09  0.11362870E-08
  0.82825034E-09  0.52054209E-09 -0.54666793E-09 -0.85447096E-10 -0.16695955E-09
 -0.87936024E-10 -0.19265367E-09  0.35636478E-09 -0.45058472E-09  0.40800981E-09
  0.13835393E-08  0.11247887E-09  0.68555269E-10 -0.93003674E-10  0.43430658E-09
  0.15968132E-09  0.73699858E-09 -0.10387069E-09  0.95689969E-09  0.56596679E-09
 -0.72935765E-09 -0.25935139E-09  0.33833662E-10 -0.23159162E-09 -0.43609693E-09
 -0.28381913E-10  0.58184485E-09  0.28231177E-09  0.53366286E-09  0.18039796E-09
 -0.17891167E-09  0.33281767E-09 -0.57447742E-09 -0.18427200E-09  0.49742782E-09
  0.39804603E-10 -0.87966682E-08 -0.88407660E-08  0.27725804E-07  0.81412381E-09
  0.86176773E-09  0.11863897E-09  0.17490926E-08  0.29865673E-09 -0.15129715E-08
  0.35836388E-09  0.39316606E-09  0.29614852E-11 -0.51016692E-09  0.30487834E-09
  0.47230753E-09 -0.86505132E-09  0.44831527E-09 -0.36064536E-09  0.83767239E-09
  0.26987042E-09 -0.47115605E-09  0.10970300E-10 -0.36130640E-11  0.16699491E-09
  0.13347566E-07 -0.67448542E-09  0.17205153E-07 -0.21558243E-07 -0.13658969E-07
 -0.38774585E-07 -0.19101488E-07  0.29418348E-07  0.48698744E-07 -0.10958662E-09
 -0.25879069E-07  0.37030963E-07 -0.17763981E-07  0.13596199E-07 -0.23883047E-07
  0.56536784E-08  0.85376928E-08  0.44775875E-08 -0.15153238E-07 -0.14947135E-08
  0.18924750E-07 -0.36411010E-07 -0.45293931E-08  0.33106300E-07 -0.10511241E-07
  0.20110520E-07  0.11647064E-08  0.21737891E-08 -0.61713125E-08  0.25960536E-07
  0.10972542E-07  0.11958027E-08 -0.66510153E-08 -0.37952996E-08 -0.24773915E-07
 -0.53964302E-08  0.17799966E-08 -0.59637427E-08 -0.35934955E-07  0.24985836E-07
 -0.60016737E-08 -0.23219042E-07 -0.16460062E-07 -0.15391739E-07 -0.41740834E-07
  0.62071151E-08  0.28997526E-07 -0.11290008E-07  0.25927426E-07  0.33830520E-07
 -0.79538130E-07  0.48425411E-08  0.16549965E-07  0.29282381E-07 -0.44574590E-08
 -0.20994484E-08  0.96794899E-08  0.15196626E-07  0.23343139E-07 -0.97531396E-07
 -0.77381069E-08 -0.34317992E-07 -0.51236692E-08 -0.42430468E-08  0.22844291E-07
  0.62527924E-07 -0.57002238E-08 -0.70110701E-08 -0.93508756E-08 -0.26513666E-07
  0.37059722E-09  0.15374739E-08 -0.13393829E-07 -0.18397130E-07  0.14028250E-07
 -0.17226925E-07  0.17495940E-07 -0.19774304E-07 -0.11754447E-08  0.22988895E-07
 -0.33771092E-09 -0.52635175E-08  0.62707144E-08 -0.15758944E-07  0.37243201E-07
  0.14371600E-07 -0.53393246E-07  0.98446786E-08  0.51996752E-08 -0.17699675E-07

  0.57202870E-09 -0.33314133E-08 -0.99014953E-10 -0.46387022E-09  0.59338961E-09
 -0.11220715E-09  0.11786060E-09  0.61258950E-09 -0.21812840E-10  0.17772849E-08
 -0.38872052E-08 -0.46445723E-09 -0.10105056E-08 -0.42696899E-09  0.91548689E-10
 -0.39831884E-09 -0.35024338E-10 -0.30174942E-10  0.15214342E-08 -0.32473602E-08
 -0.61367169E-10 -0.44147893E-09 -0.81589524E-09 -0.65354291E-10 -0.17511807E-09
  0.12955592E-09  0.30899278E-09  0.22399052E-09 -0.35757361E-08  0.11106532E-09
 -0.78354907E-09  0.93023590E-10  0.15060550E-09 -0.33236814E-10  0.44920644E-09
 -0.89465851E-10  0.13888081E-08 -0.39219675E-08 -0.30552988E-09 -0.43381106E-09
 -0.12545052E-09 -0.32582124E-09  0.38915723E-09  0.20094912E-09 -0.22623103E-09
 -0.13032356E-08 -0.45254230E-08  0.21091291E-09 -0.12280684E-09 -0.24475277E-09
 -0.25710789E-10  0.52762822E-10 -0.74245827E-09 -0.55833983E-10  0.15846501E-09
 -0.22287876E-08 -0.46801493E-10  0.20374985E-09  0.22559027E-09 -0.10763568E-09
  0.62120138E-10 -0.12616768E-09 -0.34015820E-09 -0.11490316E-08 -0.33656274E-08
 -0.42764081E-09  0.60185684E-09 -0.52865341E-09  0.14575821E-09  0.67592577E-09
  0.29778044E-09 -0.13114258E-10 -0.11836029E-08 -0.41363352E-08  0.24299983E-09
  0.54496518E-10 -0.23294605E-09 -0.16739697E-09  0.54456909E-09  0.14021493E-09
 -0.84424289E-10  0.63628236E-09 -0.30195679E-08  0.57596561E-09 -0.16657867E-09
  0.69551754E-09 -0.86586198E-09  0.40752886E-09 -0.20938464E-09  0.28469961E-09
  0.56758124E-09 -0.34668502E-08 -0.65798665E-09  0.16897113E-08  0.82158302E-11
 -0.53701495E-09  0.65701639E-09 -0.60379423E-10 -0.19368577E-09 -0.13285784E-08
 -0.15936480E-08  0.46357405E-09 -0.39493654E-09  0.54191111E-10 -0.20703730E-09
 -0.42853415E-09 -0.14575115E-09  0.44007141E-09 -0.23393627E-09 -0.37346206E-08
 -0.11612893E-08 -0.46923010E-08 -0.40116268E-08  0.81412381E-09  0.27379666E-07
  0.46263068E-09 -0.11607226E-08  0.12837819E-08 -0.36131190E-08  0.64113319E-09
  0.36715795E-09 -0.48116869E-10 -0.13452134E-09 -0.10451904E-08 -0.17026772E-09
 -0.28220281E-09  0.86479951E-09 -0.48168488E-08  0.59845363E-09 -0.81678296E-10
 -0.39863164E-09 -0.67165359E-12 -0.11163344E-09  0.10394827E-09 -0.51596635E-09
  0.29807043E-07  0.56462660E-08  0.14804156E-07 -0.12422368E-07  0.66200714E-08
  0.45374707E-08 -0.19646994E-07  0.24149229E-07 -0.35989771E-08 -0.18599995E-07
  0.23813374E-07 -0.21506362E-08 -0.21466873E-07  0.94727407E-08  0.24203812E-09
 -0.42731863E-07  0.17615700E-08  0.36460429E-08 -0.87544679E-08 -0.23927380E-07
  0.11078190E-07 -0.30486327E-07 -0.32943154E-07  0.12936319E-07  0.31631776E-07
  0.12877425E-07 -0.16483809E-07  0.45131737E-07  0.74433823E-08  0.15029652E-07
  0.23323002E-08  0.10841523E-07 -0.60834386E-08  0.58900729E-07 -0.65618194E-08
 -0.37095452E-09  0.15901800E-07  0.37036284E-07 -0.26473505E-07  0.37128423E-07
 -0.38418882E-08 -0.37815095E-07 -0.18943401E-07 -0.87217092E-08 -0.46983121E-07
  0.12722800E-07  0.44953631E-08  0.94393639E-08 -0.26762519E-07 -0.15770604E-08
  0.52222783E-08 -0.31940952E-07 -0.18473408E-07  0.15860553E-07  0.12259313E-08
  0.12445699E-07  0.12008790E-07  0.15237451E-07 -0.23530489E-07 -0.72111928E-09
  0.24099063E-07  0.55377866E-08 -0.86459463E-08 -0.42921294E-07  0.21219666E-07
  0.51425570E-08  0.26505438E-07  0.11268529E-07 -0.73532616E-08 -0.32035628E-07
  0.13597718E-07 -0.32712099E-08  0.11857347E-08 -0.18605900E-07  0.93460771E-08
 -0.44405618E-07  0.24170503E-07 -0.92003100E-08  0.28878883E-07  0.10250300E-07
 -0.11332948E-07  0.46712771E-08 -0.17102245E-07 -0.22691690E-07  0.34742517E-08
  0.77064595E-08 -0.21377511E-07  0.28416333E-09 -0.85746261E-08  0.19216889E-07

  0.13715695E-08  0.17262592E-08 -0.97255072E-09  0.41500024E-09  0.14508010E-09
  0.25256975E-09 -0.67716961E-10 -0.93896562E-09 -0.11270658E-09 -0.12408732E-09
  0.13242216E-08 -0.91528864E-10 -0.39790634E-09  0.13612052E-09 -0.25084124E-09
  0.11931784E-09 -0.88773717E-09  0.74001606E-10  0.11160285E-08  0.10437740E-08
  0.14090413E-08 -0.22917078E-09  0.12051966E-09 -0.50620612E-09  0.65994386E-10
 -0.45460022E-10 -0.86916770E-10 -0.14777760E-08  0.11023879E-08  0.55850657E-09
  0.72361064E-10 -0.15187726E-09  0.21476406E-09  0.39801922E-09 -0.61524118E-09
  0.17312341E-09  0.11443816E-08  0.12526723E-08  0.34949379E-09 -0.12944350E-09
  0.48702530E-10 -0.41609789E-09  0.61433990E-09 -0.95802750E-09  0.41082513E-09
  0.13097843E-08  0.11510344E-08  0.45963971E-09  0.61445867E-09  0.10959466E-09
  0.18508529E-09 -0.39460427E-09 -0.52829862E-09 -0.51529888E-09 -0.71967088E-09
  0.13955725E-08  0.15457497E-08  0.15261807E-09 -0.59080137E-10  0.65938438E-10
 -0.16288003E-09 -0.11252751E-08  0.25969028E-10  0.21678673E-09  0.14486567E-08
 -0.24613241E-09  0.27058789E-09  0.11798931E-09  0.50648044E-10  0.16232051E-09
 -0.94815280E-09 -0.12849869E-09 -0.28219239E-09  0.99960066E-09 -0.16626784E-09
  0.11899312E-09  0.60431705E-10 -0.22115392E-09 -0.51732993E-09 -0.78608346E-09
 -0.77975734E-10 -0.71332885E-09  0.15323337E-08  0.79777126E-09 -0.45614338E-10
  0.89575172E-10 -0.23618557E-09 -0.29421093E-09 -0.13114268E-09 -0.15047354E-10
  0.40319148E-09  0.12229845E-08 -0.44630419E-09 -0.46446483E-09 -0.16387571E-09
  0.28110078E-10  0.11987885E-09 -0.44902663E-09 -0.36039083E-09 -0.73106846E-09
  0.78516038E-09 -0.12428225E-08 -0.27816648E-09 -0.15589990E-09  0.56110898E-09
  0.34301229E-10 -0.77925198E-10  0.19315039E-09 -0.93482963E-09  0.15349005E-08
 -0.76785051E-10 -0.23371210E-08 -0.80486120E-09  0.86176773E-09  0.46263068E-09
  0.21255129E-07 -0.21670176E-08 -0.14042418E-08  0.16703490E-08  0.11957335E-08
  0.81945458E-10 -0.34249434E-09  0.38033268E-09  0.39092425E-09 -0.10962754E-08
 -0.29972576E-09 -0.12316863E-08  0.30263930E-09 -0.78716626E-09  0.23174710E-09
  0.54446412E-10 -0.11557809E-09 -0.91491870E-10 -0.85359090E-09  0.88598343E-10
 -0.65123983E-08  0.10091896E-07  0.18845989E-07 -0.31020201E-08 -0.11497628E-07
  0.38815211E-07  0.13230529E-07  0.13374132E-07 -0.47376116E-08 -0.12012131E-07
  0.14312585E-07 -0.19303054E-08  0.10065020E-07 -0.94434270E-08  0.85597831E-08
 -0.11124911E-07  0.74160917E-08  0.10414310E-08  0.99043290E-08 -0.14053203E-07
 -0.25910413E-10 -0.82114507E-08 -0.24250001E-07  0.22256221E-07  0.15636620E-07
 -0.17022657E-07  0.11257670E-07 -0.43956837E-08  0.14544033E-08 -0.16881453E-07
  0.43266447E-07 -0.27591324E-08 -0.13023096E-07  0.21209344E-08 -0.31862771E-07
 -0.70216197E-09 -0.82100888E-08 -0.26354234E-07  0.11501541E-07  0.50000039E-07
 -0.18104341E-07 -0.20239280E-07 -0.80450468E-08  0.16595058E-07 -0.17141235E-07
 -0.69802339E-07  0.50812305E-08 -0.38361103E-09  0.30375335E-07  0.94429609E-08
  0.16233524E-07  0.18323032E-07 -0.61288080E-08 -0.10503286E-08 -0.43359678E-08
 -0.53535473E-08 -0.10002286E-07 -0.23441438E-07  0.82922278E-08 -0.22072809E-07
 -0.75222940E-08  0.25319816E-07 -0.99397505E-08 -0.41224576E-08 -0.35721442E-08
 -0.20586283E-08  0.85232175E-08 -0.68880648E-08  0.10534966E-08  0.36581832E-07
 -0.20424722E-08 -0.11641052E-07 -0.20575571E-07 -0.33011985E-08 -0.18084551E-07
 -0.18933717E-07 -0.11784636E-07  0.32864899E-07  0.10545665E-07 -0.51021563E-08
 -0.19027669E-07  0.24605322E-08  0.32016658E-08 -0.73045138E-08  0.25254702E-08
 -0.25425222E-08  0.95309059E-08 -0.30713107E-08  0.94553588E-08 -0.41272019E-08

 -0.31824138E-09 -0.27280232E-08 -0.82222046E-09  0.14094793E-10  0.32072386E-09
  0.55231851E-09  0.49159753E-10  0.20580155E-09  0.21803116E-09 -0.25670071E-09
 -0.25580215E-08 -0.24274845E-10  0.25713912E-10  0.17716590E-09 -0.44824521E-11
  0.10332923E-09 -0.85015764E-10  0.33455795E-09 -0.15915198E-09 -0.19487652E-08
 -0.43026440E-09  0.11281952E-09 -0.24700060E-09  0.32348490E-10  0.13171018E-09
 -0.26511703E-09  0.25659182E-09  0.15745181E-09 -0.24207169E-08 -0.56610977E-09
  0.20801092E-09 -0.17026358E-09  0.46106234E-09 -0.54466997E-10  0.18600338E-09
 -0.33274406E-09 -0.41071228E-09 -0.32797976E-08 -0.74656646E-09  0.34782393E-09
  0.10097484E-09 -0.49685150E-09 -0.11477398E-09 -0.40108302E-09  0.54392159E-09
 -0.12337689E-10 -0.24342119E-08 -0.14984720E-08  0.11709366E-09 -0.74311468E-09
 -0.75298122E-09 -0.92097322E-10 -0.50773833E-10  0.10283956E-08  0.10223544E-10
 -0.19489154E-08  0.51587933E-09 -0.22025383E-09  0.38047955E-09  0.17179729E-09
 -0.28386349E-09  0.31462983E-09 -0.42024023E-09 -0.26225910E-09 -0.33428494E-08
 -0.39239562E-09  0.19421047E-09 -0.34610612E-09  0.18037890E-09 -0.95560976E-10
  0.38244569E-09  0.62706599E-09 -0.72884456E-10 -0.13426743E-08  0.76035572E-10
 -0.76894348E-10  0.57377260E-09  0.25080482E-09 -0.14048034E-09 -0.45464660E-10
  0.14302983E-09  0.28122321E-09 -0.37948838E-08  0.15411065E-09 -0.31727907E-09
 -0.42018814E-09  0.98625679E-09  0.21732811E-09 -0.40835210E-09  0.39445078E-09
 -0.66992318E-09 -0.20923057E-08 -0.17601526E-09  0.19421965E-09 -0.20488977E-09
 -0.20681210E-09 -0.89874827E-10  0.10925016E-09  0.28197925E-09  0.28157302E-09
 -0.74315031E-10  0.62439971E-09 -0.60346443E-10  0.61384582E-09 -0.62707364E-09
  0.39958002E-09 -0.34589818E-09  0.34327531E-09 -0.52046498E-09 -0.24681777E-08
  0.13013772E-08  0.38704429E-09  0.13976278E-09  0.11863897E-09 -0.11607226E-08
 -0.21670176E-08  0.20648916E-07  0.67851862E-09 -0.19435199E-08 -0.24690578E-09
 -0.17356845E-09  0.36051048E-09 -0.75697055E-10 -0.28921131E-09  0.18173440E-09
 -0.35248774E-09  0.30141359E-09 -0.40837514E-08 -0.59352794E-09  0.28671423E-09
 -0.19193487E-09 -0.31629481E-09 -0.34900263E-09  0.34250269E-10 -0.36471172E-09
  0.24095277E-07  0.67106509E-08  0.20416435E-07 -0.63175456E-08  0.31933107E-07
  0.26610101E-07  0.24275653E-08  0.13261242E-07 -0.18082845E-07 -0.35479506E-08
  0.26062381E-07  0.24144360E-08 -0.26651100E-07  0.15509495E-07  0.18111033E-07
  0.55375145E-08 -0.31286338E-08 -0.12757211E-07  0.19198485E-07 -0.31451531E-07
  0.86475617E-08  0.15300265E-07  0.71281535E-08 -0.45925194E-07 -0.17979275E-07
 -0.17820305E-07  0.36796037E-07  0.66124146E-08 -0.23651538E-07  0.94384464E-08
 -0.11706784E-07  0.16580380E-07  0.49067716E-08 -0.97828792E-09 -0.48127199E-08
  0.37717345E-07 -0.44673406E-07  0.52735103E-07  0.38125707E-08  0.16412195E-07
 -0.13123914E-07 -0.32579070E-07 -0.46256763E-07 -0.33707611E-07 -0.29136132E-07
  0.14069879E-07  0.83004453E-08 -0.35658102E-08 -0.48990288E-08 -0.25449853E-07
  0.68271695E-08  0.10639722E-07  0.56839978E-08 -0.36362087E-07  0.82192246E-08
  0.72069635E-08  0.48773680E-08  0.41789624E-08 -0.11877973E-07  0.16240102E-07
 -0.68731551E-08  0.11153508E-07  0.46335265E-08  0.10171084E-07  0.22809910E-07
 -0.32544652E-08  0.11846210E-07 -0.14995812E-07  0.47503347E-08 -0.44184201E-08
 -0.16274622E-07  0.63495583E-08 -0.31705593E-08 -0.24883389E-07 -0.23713621E-07
  0.46878744E-08  0.35620760E-07 -0.23751343E-07 -0.12645963E-07  0.90336168E-09
  0.11613118E-07 -0.19813311E-07 -0.73780667E-08  0.15295587E-07 -0.10204341E-07
 -0.27161041E-07 -0.12880434E-07  0.29656709E-07 -0.17853096E-07  0.10152629E-07

 -0.73973678E-08  0.12608631E-08  0.18186508E-08 -0.12753826E-08  0.69050794E-10
 -0.77721062E-09  0.37506231E-09 -0.23539434E-08  0.44114345E-09  0.11557750E-08
  0.58541751E-11 -0.79093070E-10 -0.76730488E-09  0.10646235E-08  0.84681313E-10
 -0.17663532E-08 -0.12518998E-08  0.11502229E-08  0.11553046E-08  0.45062554E-09
 -0.23343841E-09  0.93975770E-09  0.80949126E-09 -0.31600688E-09  0.64082855E-09
  0.73531060E-09  0.26410967E-09  0.15138348E-08  0.20875094E-08  0.18449389E-09
  0.10407044E-08 -0.51592009E-09 -0.51789494E-09 -0.79994317E-09  0.13708936E-09
  0.42183859E-09  0.31861830E-10  0.16479118E-08 -0.40020386E-09  0.61696920E-09
  0.32927853E-09 -0.66829572E-09  0.51358938E-09  0.90326178E-09  0.39696742E-09
  0.13654349E-08  0.81603037E-09 -0.11442829E-08 -0.21588646E-08  0.42433900E-09
  0.54635544E-09 -0.16090708E-08 -0.89464901E-09  0.69573864E-09 -0.26372515E-08
  0.30509508E-08 -0.22776409E-08 -0.20826417E-09 -0.17204626E-09  0.73294377E-09
  0.17191459E-08  0.12378400E-08 -0.16254568E-09 -0.18210111E-08  0.26699224E-08
 -0.94535022E-09  0.11987549E-08 -0.64071920E-10 -0.45277117E-09 -0.72167690E-10
 -0.76810656E-10 -0.45215100E-09  0.32182361E-08  0.31146989E-08  0.83189401E-09
 -0.76784383E-10  0.15315388E-09 -0.48939474E-09  0.14262450E-08  0.48952499E-09
  0.41224113E-09 -0.21516350E-08  0.12440122E-08 -0.20987644E-08  0.15481192E-08
  0.26389201E-09 -0.62859779E-09  0.18904412E-09 -0.48162654E-09 -0.71865010E-09
  0.34888171E-08  0.13850154E-08  0.14993484E-08  0.13823414E-08 -0.97108035E-09
 -0.16525713E-09 -0.23303571E-09  0.67436347E-09 -0.55440611E-09 -0.12924886E-09
  0.27953883E-08  0.28220486E-08 -0.15883781E-08  0.84969048E-09  0.90282263E-09
 -0.12635264E-09  0.66195222E-09  0.35664615E-09  0.45215133E-08  0.16796565E-08
  0.66062882E-10 -0.31558543E-08 -0.18782599E-09  0.17490926E-08  0.12837819E-08
 -0.14042418E-08  0.67851862E-09  0.11783198E-06 -0.18335677E-08 -0.17600221E-09
 -0.66453653E-09  0.54043980E-10  0.46488343E-09  0.22725734E-08  0.48596751E-09
 -0.30484914E-09  0.50092220E-08  0.43421981E-08 -0.19940030E-08  0.26528099E-08
 -0.98330918E-09  0.25361438E-09  0.56138302E-09 -0.12468719E-08  0.36289904E-09
  0.86635146E-07 -0.18797344E-07  0.39317326E-07 -0.18289541E-07 -0.64370656E-07
  0.10461109E-07 -0.12419054E-06 -0.62505985E-07  0.79889007E-07  0.86840622E-07
 -0.77329402E-07 -0.20842481E-07  0.68930791E-08  0.29250763E-07 -0.58896768E-07
  0.13501506E-06  0.52329159E-07 -0.32386609E-07 -0.92265469E-08  0.51647081E-07
  0.84850502E-07 -0.24539103E-06  0.11368151E-06  0.36755214E-07 -0.11534061E-07
  0.51370093E-07 -0.18333264E-07  0.15575613E-06 -0.21064189E-07  0.52755573E-07
  0.25950557E-07 -0.35085231E-07 -0.37677488E-07 -0.10300836E-06  0.13637518E-06
 -0.14585693E-07  0.12294054E-07  0.68136286E-08 -0.17872309E-07 -0.28962695E-07
  0.74950507E-07 -0.58578259E-07 -0.20519991E-07  0.70050802E-07 -0.23374678E-07
  0.17510699E-06 -0.28504918E-08 -0.23645161E-07 -0.42030339E-07 -0.10249665E-06
  0.28919567E-07 -0.75024466E-07  0.21037477E-07 -0.23118726E-07  0.11026264E-06
  0.17394755E-07  0.35587623E-07  0.13924931E-06 -0.10729608E-06  0.37961390E-07
 -0.22299352E-07  0.86021786E-07  0.16718616E-08  0.75604862E-07  0.53230588E-07
 -0.32455757E-07  0.17607292E-06 -0.52690093E-07  0.13422347E-07 -0.73862345E-08
  0.32684341E-07 -0.26399556E-07 -0.34506766E-07  0.15679683E-07  0.95057178E-08
 -0.16905282E-06 -0.26704888E-07  0.79018426E-07  0.94562632E-07  0.19744446E-07
  0.17721640E-07 -0.51201971E-08 -0.49441378E-07  0.14590995E-07  0.71001446E-07
 -0.70570579E-08  0.28186868E-07 -0.83563629E-07 -0.88651335E-08 -0.20192038E-07

  0.21845496E-08  0.21986959E-05 -0.27131659E-08  0.51059332E-08 -0.13095534E-08
  0.35195223E-08 -0.47910186E-08 -0.34387198E-09 -0.38014003E-08  0.54038427E-08
  0.21859459E-05 -0.58217672E-08  0.24143928E-08 -0.94622301E-08  0.27320227E-08
 -0.39929178E-08  0.18130924E-08  0.43547303E-08  0.84007823E-10  0.22007760E-05
  0.77732616E-08  0.19426421E-08  0.75147321E-08 -0.63038482E-09  0.41121961E-08
  0.11181854E-08  0.10239091E-08  0.61278846E-08  0.21766251E-05  0.10048525E-08
 -0.19460668E-09  0.64105195E-08  0.53665859E-09  0.51478824E-08  0.24769912E-08
  0.14020967E-08 -0.29880569E-08  0.21743737E-05  0.93175414E-08  0.29873045E-08
 -0.24221392E-08  0.29292406E-09 -0.36278089E-09  0.19539927E-08 -0.13341086E-09
 -0.31646875E-08  0.21678613E-05  0.15516219E-08  0.16310120E-08  0.49172712E-08
  0.66382969E-09 -0.47031673E-09 -0.31315866E-08  0.56160971E-08  0.11255539E-07
  0.21510042E-05 -0.13009192E-08 -0.82709806E-09  0.15196844E-08  0.15771520E-08
 -0.59011984E-09 -0.17638931E-08  0.39728566E-08  0.40367522E-08  0.21854309E-05
  0.76736759E-08 -0.63061798E-08  0.10109939E-07  0.13531792E-08 -0.29262124E-08
 -0.49562722E-09 -0.40480926E-09 -0.88254010E-08  0.21623487E-05 -0.10719557E-07
  0.45735182E-08 -0.49116548E-08  0.11377307E-08 -0.89056337E-09 -0.41521582E-09
  0.48224776E-09  0.10429208E-07  0.21686984E-05 -0.25726270E-08  0.60672243E-08
 -0.36257574E-08 -0.97464998E-09  0.60524789E-08 -0.84761263E-09 -0.14244717E-08
 -0.17697193E-08  0.22031529E-05  0.13007612E-07 -0.91668748E-09 -0.99823373E-09
  0.36409817E-08 -0.26403856E-08  0.82998169E-10 -0.73953056E-09  0.16566098E-07
  0.21779666E-05 -0.92040627E-09 -0.33803167E-08  0.14108759E-07  0.18998007E-08
 -0.69369556E-09 -0.22143592E-08  0.42551215E-08 -0.49495744E-09  0.21778084E-05
  0.30880469E-09  0.63643540E-08 -0.63573982E-08  0.29865673E-09 -0.36131190E-08
  0.16703490E-08 -0.19435199E-08 -0.18335677E-08  0.23101708E-05  0.17591110E-08
  0.39189870E-08 -0.30697351E-08  0.20790804E-08 -0.13445839E-08 -0.95016962E-09
  0.47283061E-08  0.45622770E-08  0.21941422E-05 -0.94128544E-08  0.26377488E-08
 -0.34340306E-08  0.22217379E-08  0.72569244E-09 -0.13682220E-08 -0.39548058E-08
 -0.52587833E-06 -0.97968386E-05  0.15777443E-05 -0.12177265E-06  0.18753107E-05
 -0.10092065E-06  0.16838361E-06  0.46357938E-07  0.13690968E-06  0.15777912E-05
 -0.20601784E-05 -0.51641206E-06  0.13433966E-06 -0.10114534E-06  0.11451525E-06
  0.66805724E-06 -0.49021044E-06 -0.72919879E-07  0.17983240E-05 -0.34133587E-05
 -0.20552995E-06  0.56807297E-06 -0.51351651E-06 -0.22911027E-07  0.15407721E-07
  0.78098207E-06 -0.11846619E-05  0.39748792E-06 -0.74542551E-06  0.62400883E-07
 -0.14087100E-06 -0.40616693E-06  0.17334996E-06 -0.14639644E-06  0.35441036E-06
 -0.26906640E-06  0.14270552E-05 -0.33676194E-05 -0.32714833E-07 -0.46090752E-06
  0.25110690E-06  0.54680889E-06 -0.67030583E-06 -0.33003716E-06 -0.41390991E-06
  0.15763891E-07 -0.24800512E-05  0.49900222E-06  0.20982211E-06 -0.96444019E-06
  0.28838784E-06  0.86190638E-06 -0.22089639E-06  0.48893585E-06  0.18973139E-05
 -0.38151834E-05  0.40854379E-06  0.16743948E-06 -0.12727288E-05  0.62075368E-06
 -0.71049243E-07  0.88776331E-07  0.67814297E-06  0.11456987E-05 -0.23255397E-05
 -0.40871917E-06 -0.20847191E-06 -0.56852618E-06 -0.16307314E-07  0.85935637E-07
  0.14274443E-06 -0.54262473E-06  0.95143552E-06 -0.32341865E-05 -0.63285884E-06
 -0.36627156E-06  0.91645636E-07  0.71085928E-06  0.52665982E-06 -0.48784147E-06
  0.18331886E-06  0.87316554E-08 -0.15966195E-05  0.48504990E-06 -0.45753264E-07
  0.70500440E-06  0.26746120E-06 -0.78464573E-06  0.82555426E-06 -0.10357793E-05

  0.18578581E-08 -0.24453484E-08 -0.57659290E-08 -0.95708751E-09 -0.49389094E-09
 -0.10897363E-08  0.38990218E-09 -0.19188121E-08  0.11997156E-08  0.38998889E-09
 -0.21318742E-09  0.28628421E-09 -0.98829798E-09  0.14101080E-09 -0.67489357E-09
  0.11698449E-08  0.31634657E-09 -0.60335720E-09  0.23527649E-10 -0.58799587E-09
 -0.19760776E-09 -0.81150920E-10  0.10337657E-08  0.89492950E-09  0.71081091E-10
 -0.12910280E-09 -0.48509351E-09 -0.50940475E-09 -0.39487006E-08 -0.10453434E-08
 -0.19910015E-09 -0.81341252E-10  0.93401835E-09  0.49176860E-09 -0.69235558E-09
 -0.89804419E-10 -0.36954469E-10 -0.17996028E-08 -0.16887513E-09  0.56657310E-09
 -0.59298824E-09  0.11407944E-08  0.68386548E-09 -0.38665425E-09 -0.76896962E-09
 -0.80129334E-10 -0.33841861E-08 -0.16793484E-08 -0.39320985E-09  0.12700694E-08
 -0.15776658E-08  0.43606450E-09 -0.25289257E-09 -0.17247932E-09 -0.24903718E-08
 -0.17352788E-08 -0.13035812E-08  0.64465474E-09  0.29467857E-09  0.13608225E-10
  0.54279577E-10  0.55004211E-09  0.13762786E-08 -0.89612307E-09 -0.33713278E-08
  0.53791680E-08  0.47830574E-09 -0.28642317E-09 -0.40773177E-09 -0.40163912E-09
 -0.52280581E-09 -0.73191182E-10  0.98160813E-09 -0.19739093E-08  0.45201246E-08
  0.16632646E-09  0.52159399E-10  0.73106134E-09  0.46912145E-09 -0.67465666E-09
  0.76749878E-09 -0.14997805E-08 -0.21231757E-08  0.20081674E-08 -0.18578797E-10
 -0.86886660E-09  0.30545596E-09 -0.93595179E-09 -0.38705608E-09  0.35307273E-09
  0.15293128E-08 -0.16794566E-08 -0.33299707E-09  0.28388980E-09  0.28291468E-10
  0.10574767E-08 -0.63234177E-09 -0.43689700E-09 -0.81856959E-12  0.26205595E-08
  0.13303365E-09  0.29295738E-08  0.33819085E-09 -0.45586649E-09 -0.45048058E-10
  0.36974950E-09  0.46459953E-09 -0.11436654E-08  0.59419858E-10 -0.55305723E-08
  0.89271080E-09 -0.98472776E-09  0.78933507E-09 -0.15129715E-08  0.64113319E-09
  0.11957335E-08 -0.24690578E-09 -0.17600221E-09  0.17591110E-08  0.97709854E-07
 -0.17509287E-09  0.57264080E-09  0.37109160E-09 -0.38328571E-09 -0.22412961E-09
  0.22437246E-08 -0.18551386E-08 -0.76807736E-09 -0.79480432E-10 -0.29097599E-09
 -0.51353070E-10 -0.18863861E-08  0.16335141E-09  0.13199513E-08  0.16038611E-08
  0.79421954E-08 -0.32931594E-07 -0.15635078E-06  0.38625188E-08 -0.80579637E-07
 -0.52143965E-07  0.72131025E-07  0.87526487E-08 -0.95844025E-07 -0.21618412E-07
 -0.20473781E-07 -0.11639065E-06  0.53197141E-07  0.58929712E-07 -0.36327572E-07
 -0.47613723E-07 -0.61360314E-07 -0.70471705E-08  0.54769341E-07 -0.80323681E-08
 -0.61566429E-07  0.27386252E-07  0.42998668E-07  0.15936134E-07 -0.16389330E-08
 -0.33826137E-07  0.42224235E-08  0.56367752E-07  0.83944127E-07  0.11580497E-06
  0.93628871E-07 -0.37065084E-08 -0.29430663E-07 -0.78280700E-08 -0.31452838E-07
 -0.75023428E-07 -0.14376283E-08 -0.76420086E-07  0.58670543E-07 -0.88415749E-08
  0.74685549E-07  0.93950266E-07 -0.41586200E-07 -0.74551301E-07 -0.33643861E-08
 -0.46833534E-07  0.32457248E-08  0.50253032E-08  0.56385106E-07  0.89797392E-07
 -0.12861371E-06 -0.35378152E-07 -0.14536431E-07 -0.20628616E-07 -0.16672920E-07
  0.25710725E-07 -0.12314909E-06  0.56077040E-07 -0.50917184E-07 -0.22718528E-07
  0.16058198E-07  0.22904340E-07 -0.83128341E-07 -0.85831448E-07  0.12782315E-06
  0.29859359E-07  0.68477432E-07 -0.19635155E-07 -0.84653380E-07 -0.32607593E-07
  0.74997688E-07 -0.59386366E-07  0.20651962E-07 -0.64274543E-07  0.68959041E-07
  0.15175226E-07 -0.19295730E-08 -0.35580062E-07  0.30714751E-07 -0.35213435E-08
  0.68666581E-07  0.12156376E-07 -0.10922685E-07  0.47881349E-07 -0.22728867E-07
 -0.66184752E-07  0.55570319E-08 -0.25331448E-07  0.86782284E-07  0.11087454E-06

  0.10353232E-08  0.36839165E-08 -0.29321534E-09 -0.24779268E-09  0.52870128E-09
  0.11305015E-08 -0.20451943E-09  0.37188206E-09  0.19514521E-09 -0.36104417E-09
  0.33530766E-08 -0.38202855E-09 -0.41388438E-09  0.73477798E-09  0.53460544E-09
 -0.10047488E-08  0.59209915E-09 -0.76809461E-10 -0.67235530E-10  0.43485762E-08
 -0.46376398E-09 -0.57503842E-09  0.75344587E-09  0.55057456E-09 -0.42051533E-10
 -0.72996691E-10  0.22601270E-09  0.16915645E-08  0.31936859E-08  0.87931584E-09
 -0.10307120E-09  0.97809334E-09  0.57809141E-09  0.19723838E-12  0.11606485E-09
  0.32577331E-09  0.13013924E-08  0.46978657E-08  0.59517741E-09  0.45377056E-09
  0.10768941E-08  0.41494183E-09 -0.75408792E-09  0.77021600E-09  0.60523238E-10
  0.71465416E-09  0.42217496E-08 -0.40468214E-09 -0.10398145E-08  0.10544930E-08
  0.98268667E-09 -0.58058055E-10  0.77083796E-10 -0.22817163E-09  0.20960831E-08
  0.33370027E-08  0.11990909E-08 -0.14909851E-08  0.11309232E-08  0.96171175E-09
  0.35812561E-09  0.29954783E-09  0.19623130E-11 -0.14041452E-08  0.37113003E-08
 -0.22314184E-09 -0.15759887E-08  0.10740788E-08  0.38272745E-09  0.30269695E-09
 -0.10062889E-08  0.18599679E-09 -0.26866959E-09  0.42133968E-08 -0.37861694E-09
 -0.25935513E-08  0.12061086E-08  0.11404252E-08 -0.57380859E-09 -0.39203625E-09
 -0.74658810E-10  0.14289187E-08  0.36593720E-08  0.52638669E-10 -0.16485057E-08
  0.86417617E-09  0.12509091E-08 -0.23754533E-09  0.38029743E-09  0.28503161E-10
 -0.55640107E-09  0.41633660E-08 -0.56891551E-09  0.15655978E-09  0.65407987E-09
  0.59481577E-09 -0.49099917E-09 -0.88403504E-09  0.45729854E-10 -0.40256857E-09
  0.30036298E-08 -0.73404272E-09 -0.16657479E-08  0.11130179E-08  0.10964552E-08
 -0.35268588E-09  0.95291473E-09  0.10230017E-09 -0.64108248E-09  0.39552241E-08
  0.11230359E-08 -0.71909233E-09  0.55393357E-09  0.35836388E-09  0.36715795E-09
  0.81945458E-10 -0.17356845E-09 -0.66453653E-09  0.39189870E-08 -0.17509287E-09
  0.42761802E-07 -0.11376636E-07 -0.79842439E-08 -0.13945100E-08 -0.12583149E-08
 -0.52614923E-09 -0.14095009E-08  0.27946456E-08  0.41689902E-09 -0.18974181E-08
  0.13579545E-08  0.10375543E-08 -0.42142319E-09 -0.44712488E-09 -0.12386781E-09
 -0.41546683E-07 -0.60201412E-08 -0.10431450E-07  0.38956561E-08 -0.19983809E-07
 -0.35346629E-07  0.87524025E-08  0.37911265E-07  0.27367586E-07  0.44543844E-07
 -0.16195584E-07  0.68036506E-08  0.93389581E-07 -0.27693352E-07  0.11373060E-08
  0.17486980E-07  0.47841697E-07  0.83713675E-08  0.92308037E-07 -0.97628406E-08
  0.13670659E-07  0.39314788E-07 -0.14750701E-07 -0.10897545E-07 -0.23986826E-08
  0.83349454E-08  0.12146468E-08 -0.48928748E-07  0.20451512E-08 -0.19411494E-07
  0.65699147E-07 -0.26349282E-07  0.18601096E-07  0.93244533E-08 -0.11589602E-08
  0.12658882E-07 -0.56288950E-08  0.34038230E-08 -0.49008946E-08  0.50316468E-07
 -0.21196688E-07  0.16069737E-07  0.34804858E-07  0.11717415E-07 -0.77350405E-08
 -0.12200367E-06  0.57810367E-08  0.15220253E-08  0.22455313E-08 -0.85994790E-09
 -0.82939423E-08  0.25072176E-07 -0.47581830E-07  0.24962467E-08  0.61781498E-07
 -0.20040197E-07  0.14159738E-07 -0.55355324E-07  0.23667771E-07  0.11229903E-07
 -0.12700345E-07  0.19342120E-07  0.18862391E-07  0.69265114E-08  0.21783179E-07
 -0.12172906E-07  0.58533998E-07 -0.48936957E-07 -0.10682468E-07  0.24756913E-07
  0.21051682E-07 -0.13080137E-08  0.23640063E-07 -0.36754056E-07 -0.12064988E-07
  0.51197095E-08 -0.12959770E-07  0.96298544E-08 -0.43434882E-07 -0.26428986E-07
  0.15528701E-07  0.17416666E-07 -0.49616508E-09  0.15135947E-07  0.10381699E-07
 -0.11085363E-07  0.18011220E-07 -0.37571019E-07 -0.21238773E-07  0.66741760E-08

  0.51746393E-09  0.17244958E-08 -0.84043080E-09  0.28235866E-09 -0.62143382E-09
  0.64837676E-09  0.46808077E-10  0.54172463E-10  0.18542250E-09  0.21899992E-09
  0.12910061E-08  0.31146951E-09  0.36130803E-09  0.96117682E-10  0.63989322E-09
 -0.53352357E-09 -0.63836906E-10 -0.44761598E-09 -0.50729022E-09  0.34128595E-09
  0.15937203E-10  0.65912144E-09 -0.10680667E-08  0.47926810E-09 -0.17798858E-09
 -0.90580098E-10 -0.93246193E-09 -0.32543707E-09  0.19974402E-08 -0.54336170E-09
  0.79000882E-09  0.21264976E-09  0.51906169E-09 -0.13381683E-09 -0.14377796E-10
 -0.18493744E-09  0.33390574E-09  0.13716117E-08 -0.54645651E-09  0.99512335E-09
 -0.20603933E-08  0.48353110E-09 -0.46630826E-09 -0.30868374E-09  0.94288650E-10
  0.49983649E-09  0.38421712E-08 -0.70163285E-09  0.63786527E-09 -0.21897752E-08
  0.52787371E-09  0.10895434E-09  0.72040246E-11 -0.41497496E-09 -0.10227075E-09
  0.16561224E-08  0.20715450E-09  0.11997201E-08 -0.17239806E-08  0.66223380E-09
 -0.86090187E-09  0.11854879E-09 -0.73845940E-09  0.42236867E-09  0.19847496E-08
  0.49897221E-09  0.99943873E-09 -0.23041905E-08  0.73357278E-09 -0.40312406E-09
  0.35866477E-09 -0.39749809E-09  0.61987101E-10  0.72380754E-09  0.31804832E-10
  0.98382221E-09 -0.37160515E-08  0.96515076E-09 -0.64602122E-09  0.77753542E-10
 -0.14981550E-09 -0.43621313E-10  0.77416591E-09 -0.56855205E-10  0.88044624E-09
 -0.35283320E-09  0.25092241E-09 -0.51997887E-09 -0.56007912E-10 -0.45609520E-09
 -0.60917103E-10  0.12533060E-08 -0.84893228E-09  0.26748993E-09 -0.42013986E-09
  0.43175206E-09  0.59723814E-09  0.43443127E-09  0.94392223E-10  0.83876165E-09
  0.47258604E-08 -0.33715773E-09  0.11891062E-08 -0.21352742E-08  0.87161222E-09
 -0.14067821E-09 -0.14788983E-09 -0.40725709E-09  0.49014080E-09  0.32316655E-08
 -0.55767241E-09  0.59945113E-09  0.17987766E-09  0.39316606E-09 -0.48116869E-10
 -0.34249434E-09  0.36051048E-09  0.54043980E-10 -0.30697351E-08  0.57264080E-09
 -0.11376636E-07  0.46432511E-07 -0.95184189E-08 -0.17491656E-08 -0.13208319E-08
  0.17795657E-08 -0.25691992E-09  0.34228707E-08  0.59070581E-09  0.14581962E-08
 -0.34117043E-08  0.16907558E-08 -0.69133076E-09  0.46475613E-09  0.33727097E-09
  0.38917867E-07 -0.81780800E-07 -0.18108721E-07 -0.22606495E-08  0.57995936E-07
 -0.22993486E-07  0.67071965E-08 -0.23727718E-07 -0.24424643E-07 -0.27572197E-10
 -0.17502468E-07 -0.33032862E-07 -0.40341777E-07  0.71490386E-07 -0.75161682E-08
  0.22584704E-07 -0.26926527E-08  0.23569464E-07  0.21927960E-07  0.10102902E-07
  0.25302252E-07 -0.10074255E-07  0.51121299E-08  0.14783741E-07  0.64248362E-07
  0.73098759E-08 -0.14350237E-07 -0.71954277E-08  0.18057452E-07  0.71179225E-08
 -0.22763328E-07  0.14097435E-06  0.22310516E-08 -0.29156937E-08 -0.49287058E-08
  0.68203241E-08 -0.21277659E-07 -0.93569628E-07 -0.29659774E-07 -0.25405447E-07
  0.50485028E-07 -0.30183971E-07  0.18336835E-07 -0.18113782E-07 -0.64267445E-08
  0.57872351E-07 -0.27344491E-07 -0.17162619E-08  0.44404090E-08  0.54317452E-07
 -0.29639568E-07 -0.91375754E-08  0.30857381E-07 -0.97695135E-08 -0.21981640E-07
  0.54158311E-07  0.33219604E-07  0.41671325E-07 -0.17041633E-07 -0.12948678E-07
 -0.10753311E-07 -0.10965847E-07 -0.15495502E-07 -0.13198128E-08  0.16304405E-07
  0.34368843E-07 -0.28947841E-07  0.37418489E-07 -0.71484679E-08 -0.72647888E-08
 -0.10099188E-07 -0.65311006E-08 -0.14416953E-07  0.51787694E-07  0.10225717E-07
 -0.15051422E-07  0.32306804E-07  0.21463892E-07 -0.40465180E-07  0.24946475E-07
 -0.50522710E-07  0.25834292E-07  0.44515799E-07 -0.17769118E-08 -0.24861527E-07
  0.31798014E-07  0.33462555E-08 -0.71509541E-09  0.29307303E-07 -0.58249296E-08

  0.83656946E-10  0.23711471E-08  0.42267171E-10  0.11103159E-08  0.68069974E-09
 -0.12198690E-08 -0.25007164E-09 -0.15079942E-09 -0.43783368E-09 -0.17516411E-08
  0.29193510E-08  0.77267317E-09  0.65042527E-09  0.85625262E-09  0.25286330E-09
  0.26181636E-09  0.17047781E-09  0.22538953E-09  0.79261466E-09  0.19594101E-08
  0.14843776E-08  0.52179364E-09  0.59530247E-09  0.34140501E-09  0.94469454E-10
  0.42459742E-09 -0.32590522E-09 -0.73416798E-09  0.20035732E-08  0.74763899E-09
  0.48525361E-09  0.55525325E-09 -0.54827221E-09  0.34857923E-12  0.22192493E-09
 -0.11923893E-11 -0.76364536E-09  0.20287032E-08  0.16775695E-08  0.28757282E-09
  0.60478937E-09 -0.40828688E-09  0.41938554E-09  0.58165245E-09 -0.35984967E-09
 -0.58664172E-09  0.16123921E-08  0.11840886E-08  0.11016946E-08  0.48264390E-09
 -0.61356794E-09 -0.16084809E-09 -0.33152352E-09  0.36263210E-10 -0.50255866E-09
  0.28701501E-08 -0.48156608E-09  0.90308038E-09  0.69236340E-09 -0.10368144E-08
  0.83484864E-10 -0.18375678E-09 -0.47477672E-09  0.17787562E-09  0.16754829E-08
 -0.51444704E-09  0.49939501E-09  0.91171476E-09 -0.95880225E-09 -0.31646531E-09
 -0.31078017E-09 -0.12153211E-09  0.71751898E-10  0.18774849E-08 -0.73034438E-10
  0.12562974E-08  0.11188334E-08 -0.12954258E-08  0.13952467E-09 -0.12025991E-09
 -0.13759768E-09 -0.49689796E-09  0.17742418E-08  0.86480748E-09  0.97975539E-09
  0.47014353E-09 -0.14300864E-08  0.98515108E-10 -0.14423649E-09  0.28034521E-09
 -0.23708863E-09  0.24541832E-08  0.17098743E-08  0.45485604E-09  0.47548216E-09
  0.40593472E-10 -0.20438041E-09 -0.59962550E-09 -0.14097089E-09 -0.82930875E-09
  0.21899729E-08  0.20132903E-08  0.74929885E-09  0.74803907E-09 -0.81569890E-09
  0.12390983E-09 -0.34370522E-09  0.35594199E-10 -0.19328723E-09  0.23684057E-08
 -0.31362047E-10  0.33231535E-09  0.37089366E-09  0.29614852E-11 -0.13452134E-09
  0.38033268E-09 -0.75697055E-10  0.46488343E-09  0.20790804E-08  0.37109160E-09
 -0.79842439E-08 -0.95184189E-08  0.28465023E-07  0.40508185E-09  0.23159431E-08
  0.75774577E-09  0.88536423E-09  0.25403455E-08 -0.19937417E-08  0.89546994E-09
  0.16674187E-08 -0.34176185E-08  0.13805882E-09 -0.65521446E-09 -0.21734411E-09
 -0.14770011E-07  0.16708892E-07  0.17224786E-07 -0.19845106E-07 -0.20417267E-08
  0.58819941E-07 -0.82413179E-08  0.89067547E-08 -0.22618088E-07 -0.35308212E-08
 -0.29595330E-08 -0.10874046E-07 -0.12387425E-07 -0.10268860E-07 -0.25229326E-07
  0.19253148E-08  0.79572650E-08 -0.94208220E-08 -0.29848666E-07  0.49760048E-08
 -0.25132057E-07 -0.24487697E-07 -0.43698866E-09  0.89839720E-08  0.11031101E-07
 -0.15153477E-07 -0.56859978E-08  0.11010791E-07 -0.15505844E-07 -0.66908231E-08
  0.31340097E-07  0.16819362E-08 -0.73762634E-07  0.61685520E-09  0.21778272E-07
 -0.12770218E-07 -0.53793059E-08  0.22078050E-07  0.19302718E-07  0.23163589E-07
 -0.13222539E-07  0.69809361E-08 -0.12980727E-07 -0.14082326E-07 -0.81362016E-08
 -0.76783976E-08  0.44274674E-09 -0.49082935E-08 -0.28668044E-07 -0.36353548E-07
  0.54809554E-07  0.81185075E-08 -0.28781172E-07  0.13693469E-07  0.11738710E-08
 -0.36261684E-07 -0.17831383E-07 -0.55097937E-08 -0.12913386E-07  0.30806510E-07
 -0.77335291E-08 -0.73901973E-08 -0.40485383E-08 -0.42478208E-07 -0.70946946E-09
 -0.32773218E-07 -0.19986666E-07 -0.24595132E-07  0.48938117E-07  0.73099059E-08
  0.12266403E-07 -0.14724599E-07 -0.62174981E-08  0.18870306E-08 -0.35037603E-07
 -0.42372877E-08 -0.14053005E-07 -0.11817369E-07  0.18081853E-07 -0.39113802E-08
  0.25225731E-07  0.19197390E-08 -0.23380119E-07  0.31678796E-08  0.27192170E-08
 -0.41005977E-08 -0.16432736E-07  0.23103940E-07 -0.19020312E-07 -0.37398789E-08

  0.58958264E-09 -0.10902420E-08  0.58716789E-12  0.55550306E-09  0.69967445E-10
 -0.59085376E-10 -0.17314431E-09 -0.13900180E-09 -0.42768749E-12 -0.73465157E-09
  0.25272931E-09  0.30246250E-09  0.10440424E-09 -0.27422569E-09 -0.60515022E-10
 -0.36546484E-09  0.12628773E-09  0.19878513E-09 -0.22730654E-09 -0.38407966E-09
  0.34862840E-09 -0.38376255E-09  0.12858502E-09  0.19248734E-09  0.49285350E-10
 -0.10101475E-09 -0.30029654E-10 -0.25073701E-09 -0.73138839E-09  0.29255401E-09
 -0.37906309E-09  0.45229017E-10 -0.13296284E-09 -0.11787195E-09 -0.36143502E-09
  0.14721697E-09 -0.51066015E-09 -0.14498691E-08  0.27482049E-09 -0.26341218E-11
  0.22819323E-09  0.72177220E-10  0.15411252E-10 -0.46500085E-09  0.25461484E-09
 -0.12402954E-08 -0.98688568E-09  0.41261941E-09  0.68117287E-09 -0.42091907E-09
 -0.11471662E-10  0.17522189E-09  0.51593098E-09  0.17512291E-09  0.13035277E-08
 -0.46358204E-09 -0.10063387E-09  0.35616849E-10 -0.14713643E-09  0.50849546E-10
 -0.28765690E-09  0.20333634E-10  0.22035205E-09 -0.45675007E-09 -0.10775770E-08
 -0.16399468E-09 -0.44300180E-09 -0.82762435E-11  0.40519672E-10 -0.66232696E-09
 -0.16513734E-09  0.75186596E-10  0.46981382E-09 -0.93006250E-09  0.29081571E-10
  0.13956698E-10  0.12643797E-09  0.41902162E-10 -0.70266501E-09  0.31711585E-09
  0.17423482E-09  0.19674978E-08  0.12944248E-09 -0.54293933E-09  0.16726458E-09
 -0.51460635E-10 -0.85755342E-10  0.13814837E-08  0.30746574E-09 -0.48511585E-10
  0.76782180E-10 -0.15572837E-08 -0.41780525E-09 -0.64260107E-09 -0.10890869E-09
 -0.63046950E-10 -0.42563390E-09  0.34685247E-09  0.22238604E-09 -0.19983962E-09
 -0.27508123E-08 -0.95166794E-09 -0.37545285E-10 -0.13936994E-09 -0.18981370E-09
 -0.44655889E-09 -0.46759588E-10  0.22724351E-09 -0.74452878E-09 -0.18957823E-08
  0.64114594E-09  0.49219609E-09  0.42516211E-09 -0.51016692E-09 -0.10451904E-08
  0.39092425E-09 -0.28921131E-09  0.22725734E-08 -0.13445839E-08 -0.38328571E-09
 -0.13945100E-08 -0.17491656E-08  0.40508185E-09  0.25161064E-07  0.73172929E-09
 -0.88486725E-09  0.64440239E-09 -0.73225534E-09  0.69972610E-09 -0.35046255E-09
 -0.37415781E-09 -0.11163058E-09 -0.15881822E-08 -0.26040384E-09  0.12960838E-09
 -0.45613216E-07 -0.78863637E-08  0.21553983E-07  0.10680105E-07  0.19454438E-07
 -0.53345153E-08  0.61681963E-08 -0.21506326E-07 -0.16371939E-07  0.28500431E-07
  0.79028390E-08  0.17874399E-07  0.52206777E-07 -0.15401353E-08 -0.17533531E-07
 -0.21048598E-07 -0.95022896E-08 -0.30205019E-08  0.25610059E-07  0.14427018E-07
  0.87340076E-08  0.97472301E-08 -0.18794177E-08 -0.52895063E-08  0.43953225E-07
  0.51185544E-08 -0.74765431E-08 -0.72109778E-08 -0.23206355E-07 -0.33139723E-08
  0.81392913E-08  0.10186469E-07 -0.72516585E-08  0.83639328E-07 -0.73532948E-08
 -0.12075918E-07 -0.18967675E-07  0.94156894E-08  0.44994938E-08 -0.26989355E-07
 -0.92467727E-08  0.41579686E-08  0.38066512E-07  0.15165739E-07  0.14912407E-07
 -0.78054872E-08 -0.18612285E-07 -0.79775511E-08  0.21394362E-08  0.77982384E-08
 -0.37388865E-08 -0.40813684E-07  0.20854975E-07 -0.52541402E-08  0.31502633E-07
 -0.20847767E-07 -0.10821516E-07 -0.32108866E-08  0.11187053E-07 -0.82296513E-08
 -0.16274871E-08  0.36524434E-08  0.26187384E-07 -0.24498505E-08 -0.33237170E-08
 -0.24503712E-08  0.42086671E-09 -0.14951439E-07 -0.13459417E-08  0.13761550E-07
 -0.36841800E-07 -0.10765331E-07 -0.25767874E-07  0.27535596E-07  0.14918996E-07
 -0.25607615E-08 -0.30484547E-08 -0.21215578E-08  0.56989565E-07 -0.10720095E-07
  0.73719783E-08 -0.25301811E-08  0.29607577E-07 -0.41324298E-08 -0.50100575E-07
 -0.73955452E-08  0.16254610E-07  0.48472733E-07 -0.77969665E-08  0.12214203E-07

 -0.69476508E-09 -0.17394231E-08  0.81797797E-09  0.60207175E-09  0.69068978E-10
 -0.19980932E-09  0.10435058E-10 -0.43727278E-09 -0.50554538E-09 -0.49713225E-12
 -0.19222263E-08 -0.21960428E-08  0.94684824E-09 -0.11258322E-09  0.33886008E-10
 -0.23671475E-09 -0.11027848E-09 -0.31240288E-10  0.49851351E-10 -0.15416306E-08
  0.27304501E-09  0.80305461E-10 -0.15207533E-09  0.39304603E-09 -0.41789906E-09
 -0.23154036E-09 -0.46079362E-10  0.93619072E-09 -0.15365863E-08 -0.64833084E-09
 -0.10859146E-09 -0.54500183E-10  0.16444924E-09  0.19223147E-09 -0.67252920E-09
 -0.10520157E-09  0.16119536E-08 -0.16791801E-08 -0.48867787E-09  0.66494129E-09
 -0.42368039E-09  0.79171045E-09  0.97707267E-10 -0.30605342E-09  0.69531831E-11
 -0.69139390E-10 -0.18209958E-08 -0.98652346E-10  0.12575519E-09  0.17520538E-09
 -0.24740297E-09 -0.31351809E-09 -0.52970313E-09 -0.32387538E-10  0.10317383E-08
 -0.22062317E-08 -0.23012361E-10  0.27620103E-09  0.10986977E-09 -0.28824502E-09
 -0.46771825E-09 -0.43035849E-09 -0.19082198E-09  0.11051719E-10 -0.21530404E-08
 -0.60232503E-09 -0.10945577E-08  0.34018457E-09 -0.22183025E-09 -0.53882636E-10
 -0.15899492E-08 -0.53428000E-09 -0.33463391E-09 -0.19986065E-08  0.13258728E-09
 -0.30603981E-09 -0.16872934E-12 -0.10799172E-09 -0.88653515E-10 -0.65027015E-09
 -0.21807105E-09  0.94163592E-09 -0.29725284E-08  0.14929431E-09  0.33241746E-09
  0.14537687E-10 -0.11383071E-09 -0.39369893E-10 -0.11126311E-08 -0.77928231E-10
  0.41230508E-09 -0.26551224E-08  0.65695015E-11 -0.69418898E-09  0.45831602E-09
 -0.64238176E-09 -0.11642984E-09 -0.29404623E-09 -0.96477471E-10  0.50059426E-09
 -0.27694889E-08 -0.93182125E-09  0.10130477E-08 -0.92031781E-10 -0.35543159E-09
 -0.93220720E-10 -0.76935904E-09  0.13859726E-09  0.87688274E-09 -0.18863723E-08
 -0.53506927E-09  0.74542134E-10 -0.76378674E-10  0.30487834E-09 -0.17026772E-09
 -0.10962754E-08  0.18173440E-09  0.48596751E-09 -0.95016962E-09 -0.22412961E-09
 -0.12583149E-08 -0.13208319E-08  0.23159431E-08  0.73172929E-09  0.20678520E-07
 -0.56052939E-09 -0.95444273E-09 -0.25392116E-08  0.36332671E-09 -0.36882605E-09
  0.35613655E-09 -0.54893019E-09  0.37641963E-10 -0.22251204E-08 -0.25775021E-09
 -0.99063077E-08  0.13275746E-07 -0.19365016E-07  0.21114712E-07  0.19055661E-08
  0.24033599E-07  0.11557829E-07 -0.13369734E-07 -0.10028917E-08 -0.13319808E-07
 -0.19967201E-07  0.50084158E-08  0.39135434E-07 -0.10685583E-08 -0.80274391E-10
 -0.11611117E-07 -0.29262520E-07  0.66535165E-08 -0.56613439E-08  0.82122491E-08
 -0.19570613E-08  0.19273713E-08  0.13088417E-07 -0.20354155E-07 -0.50903811E-08
 -0.23119967E-08  0.27209996E-07 -0.30445381E-07 -0.97736347E-08  0.51363250E-08
 -0.18779279E-08  0.85928410E-08  0.36132641E-08  0.20402506E-07  0.37656903E-07
  0.60303725E-08 -0.11805032E-07  0.17228972E-07 -0.10573823E-07  0.46644095E-08
  0.59690614E-08 -0.39339259E-08 -0.21984712E-07  0.19348715E-07 -0.70523404E-08
 -0.24732672E-08  0.18538412E-07 -0.29096209E-07 -0.48785816E-07  0.15662368E-07
 -0.13726931E-07  0.10503609E-07 -0.17784281E-07  0.15629310E-07  0.14216423E-07
 -0.52805486E-08  0.37368005E-08  0.10262061E-08 -0.10759125E-07  0.59848321E-08
  0.18593702E-07 -0.59071908E-08 -0.28983521E-07 -0.21426916E-07  0.87384690E-08
 -0.24579883E-07  0.18669253E-07  0.24508549E-10  0.11074388E-07 -0.19932968E-07
  0.10322051E-07 -0.81386845E-09 -0.11604228E-07 -0.36219414E-08  0.16854056E-07
 -0.11975600E-08  0.52440862E-08 -0.21672397E-07  0.75305810E-08 -0.28894237E-07
 -0.56675721E-08  0.11423278E-07  0.30202924E-08  0.10987933E-07 -0.29312756E-07
  0.18671968E-07 -0.10328494E-07  0.46352244E-08 -0.18059466E-07  0.37520119E-08

  0.79894856E-10  0.27941013E-08  0.63465029E-09  0.59388686E-10  0.57989943E-10
 -0.27285677E-09 -0.95267133E-10  0.11789787E-09  0.75031939E-10  0.17212401E-09
  0.41750268E-08 -0.75760859E-09  0.16733163E-09 -0.70638127E-09  0.31724168E-09
  0.11922450E-09 -0.10444093E-09 -0.23357142E-09  0.63923751E-09  0.43924751E-08
 -0.28462557E-09 -0.60732638E-10 -0.77399966E-10 -0.18828390E-10  0.51514068E-10
  0.12880111E-09 -0.94362765E-10  0.34149174E-09  0.34832069E-08 -0.33405823E-09
 -0.21026922E-09  0.14802911E-09  0.80480270E-10  0.46079129E-10 -0.30438786E-09
  0.18022711E-09 -0.14883189E-09  0.49341700E-08 -0.44748654E-09 -0.45034301E-10
 -0.48062818E-09 -0.29656151E-09  0.35094163E-09  0.28691085E-09 -0.45144954E-09
  0.24881004E-09  0.41818011E-08 -0.53214846E-09  0.77154133E-10  0.77805249E-10
  0.29166873E-09  0.59192893E-10  0.15103760E-09 -0.10566857E-09 -0.44008893E-10
  0.54083523E-08  0.13949718E-08  0.11202771E-09 -0.32413211E-09  0.53806424E-10
  0.13739629E-09  0.42554163E-11  0.73704347E-10 -0.58255071E-10  0.26011627E-08
  0.52295314E-09 -0.25818282E-10  0.25063481E-09 -0.33399996E-09  0.42328536E-10
 -0.15148186E-09 -0.10172907E-08  0.95958950E-10  0.34997863E-08  0.54770693E-09
  0.21417472E-09  0.22036719E-09 -0.60708624E-10  0.17159244E-09 -0.24871156E-10
 -0.12959684E-08 -0.80010835E-09  0.21008223E-08  0.95415392E-09 -0.99130208E-10
  0.37671260E-09  0.35410243E-09 -0.17128041E-09 -0.58193450E-10 -0.14117284E-09
 -0.45062313E-09  0.46761240E-08 -0.68172217E-09  0.36799497E-09 -0.68406916E-09
  0.10019231E-09  0.29878164E-09 -0.40561348E-09  0.20474232E-10 -0.60270570E-09
  0.24291184E-08 -0.98970294E-09  0.13049834E-10  0.10443722E-09 -0.11925180E-09
  0.15302707E-09 -0.31154019E-09 -0.33936829E-09  0.73225053E-09  0.46918006E-08
  0.11001453E-08 -0.37537472E-10  0.18208524E-09  0.47230753E-09 -0.28220281E-09
 -0.29972576E-09 -0.35248774E-09 -0.30484914E-09  0.47283061E-08  0.22437246E-08
 -0.52614923E-09  0.17795657E-08  0.75774577E-09 -0.88486725E-09 -0.56052939E-09
  0.20178320E-07  0.78181714E-09  0.45249293E-08  0.11369861E-08 -0.28718911E-09
  0.34237769E-09 -0.44455529E-10 -0.36475092E-10 -0.33814572E-09 -0.53234216E-09
  0.16945595E-07 -0.28086067E-07 -0.19595258E-07 -0.14300843E-07  0.70484019E-07
 -0.24777614E-07  0.41950784E-08 -0.20957978E-07 -0.18976649E-07  0.40302402E-08
 -0.27395793E-08 -0.34216803E-07  0.13229482E-08 -0.10721985E-07 -0.43372921E-10
  0.67682691E-08 -0.15835444E-07  0.27830616E-08 -0.53584298E-08  0.14779829E-07
 -0.50558942E-08  0.26547343E-08 -0.78678295E-08  0.32415360E-08 -0.48478067E-08
  0.53344096E-08  0.20504991E-07  0.72119771E-08 -0.20404800E-07 -0.19617803E-08
  0.11533977E-07  0.38496123E-08 -0.32225330E-07 -0.77212267E-08  0.84344508E-08
  0.40041528E-07  0.10917474E-07 -0.10531041E-08 -0.58481995E-08 -0.14471259E-07
  0.31597096E-07  0.17096536E-07  0.20413061E-07 -0.60274823E-08 -0.17116865E-07
 -0.19662315E-07  0.61326127E-09 -0.31869490E-08  0.41240626E-08 -0.98767166E-08
  0.11342426E-07 -0.31132217E-08  0.28750734E-08 -0.84056395E-10 -0.10860684E-07
  0.12172407E-08 -0.14876218E-07 -0.22123615E-08  0.40581429E-09 -0.87322313E-08
  0.19034630E-07 -0.25362159E-07  0.72302767E-08  0.10645542E-07 -0.37517903E-07
  0.75399294E-08 -0.12927466E-07 -0.30550481E-07 -0.24154054E-07 -0.78704869E-08
  0.11100068E-08 -0.34070035E-07  0.39310730E-08  0.17132914E-07  0.67523467E-11
  0.58034730E-08 -0.19056119E-07  0.18562027E-07  0.95654216E-08  0.85293101E-08
 -0.35243936E-07 -0.48639559E-08 -0.25629760E-08 -0.35500227E-08  0.50894723E-08
  0.10547537E-07 -0.14283651E-07  0.12445808E-07  0.45411018E-08  0.13475804E-07

  0.52545672E-08  0.37490896E-08  0.21517179E-09 -0.31165992E-09 -0.37570773E-09
 -0.35401695E-09  0.46793117E-09 -0.73015307E-09 -0.32358566E-09  0.12160918E-08
  0.62402341E-08 -0.39892686E-09  0.67233654E-09 -0.45681393E-09 -0.20411382E-09
  0.83312526E-09  0.51752277E-09 -0.46867001E-09  0.22414155E-08  0.42291322E-08
 -0.12384983E-08 -0.11024391E-08  0.12966051E-09 -0.34105440E-09  0.79255734E-09
  0.86960640E-09 -0.18870179E-09 -0.14341141E-09  0.40231213E-08  0.15416783E-08
  0.19941259E-08 -0.22207348E-09 -0.26351073E-09  0.21174110E-09  0.53106318E-09
  0.30549080E-09  0.12120845E-08  0.57610271E-08 -0.16157604E-08 -0.15292000E-08
  0.42818750E-09  0.10388274E-08  0.34556382E-09  0.65454263E-09 -0.83724887E-09
  0.14966394E-08  0.42298026E-08 -0.32432223E-09  0.21906491E-08  0.52971924E-10
  0.55390461E-10  0.66747798E-09 -0.67915002E-09 -0.30502527E-09 -0.95260957E-09
  0.33256476E-08 -0.44480907E-09 -0.51932402E-09 -0.68176506E-09  0.37501666E-09
  0.66809537E-09  0.33320943E-09  0.81818290E-10  0.30878730E-08  0.32895352E-08
  0.13250802E-08 -0.14959199E-08  0.32532785E-09  0.47877153E-09  0.14753697E-08
  0.71755157E-09 -0.90128796E-10 -0.17046080E-08  0.41970909E-08  0.31522971E-08
  0.19254984E-08 -0.20131290E-09 -0.41398968E-09 -0.17851809E-08 -0.15986656E-08
 -0.80822786E-09 -0.21197002E-08  0.21351368E-08  0.15055914E-08  0.78134245E-10
  0.33835244E-09 -0.23154495E-09  0.18654630E-08  0.72753935E-09  0.63737980E-09
  0.21838363E-10  0.27705931E-08  0.11775161E-08  0.57611965E-10 -0.67960272E-09
 -0.85278899E-10  0.17463935E-08 -0.43708043E-09 -0.22420348E-09  0.92442996E-09
  0.25620145E-08  0.18109435E-08 -0.10738716E-08  0.13320174E-09 -0.95543599E-10
 -0.17395592E-08 -0.16835875E-08  0.84214061E-09 -0.73387425E-08  0.38639937E-08
  0.52570641E-09  0.12943677E-08 -0.27384466E-09 -0.86505132E-09  0.86479951E-09
 -0.12316863E-08  0.30141359E-09  0.50092220E-08  0.45622770E-08 -0.18551386E-08
 -0.14095009E-08 -0.25691992E-09  0.88536423E-09  0.64440239E-09 -0.95444273E-09
  0.78181714E-09  0.11466215E-06  0.89066199E-08 -0.40691676E-08 -0.99453367E-09
  0.32348826E-09 -0.12636000E-09 -0.15718119E-09  0.20186608E-09  0.90416190E-10
  0.93418054E-07 -0.16455032E-07  0.10752613E-06 -0.10459485E-06  0.45862946E-08
 -0.18780771E-07  0.22760899E-07 -0.38974420E-07 -0.19556480E-07  0.43700106E-07
 -0.20157305E-07  0.64522072E-07 -0.15651599E-06 -0.13210830E-07  0.17795074E-07
  0.89760567E-07  0.90092658E-07  0.10770673E-07  0.31380528E-07  0.50180692E-07
  0.79834351E-08  0.83777963E-07 -0.24192244E-07  0.15427285E-07  0.15826998E-06
 -0.10445536E-08  0.26955999E-09  0.75640914E-07 -0.30396146E-07 -0.28764971E-07
 -0.80864231E-07  0.99619128E-07 -0.41344010E-07 -0.66428229E-07  0.14224924E-07
  0.33167756E-08  0.79541439E-07 -0.10027702E-07  0.45594840E-07 -0.14763802E-06
  0.31198390E-07 -0.52187004E-08  0.34264925E-07  0.73150262E-08  0.15237734E-07
  0.26475608E-07 -0.44928412E-07 -0.15497295E-07  0.18869142E-06 -0.57567602E-07
  0.32972221E-07 -0.10324476E-07 -0.11637676E-06  0.40276453E-07 -0.82440741E-07
  0.42349039E-07 -0.23308031E-07  0.25552432E-06 -0.23922738E-07 -0.30644788E-07
  0.32466636E-07 -0.20162177E-07  0.48568439E-07  0.16712628E-06 -0.13990991E-07
 -0.66232105E-07 -0.22689604E-06  0.44937233E-07  0.34874171E-07  0.24337438E-07
  0.10050215E-06 -0.62916596E-08  0.37938414E-07 -0.88479584E-08 -0.42736060E-07
  0.10722381E-07 -0.22622793E-07 -0.88403531E-07 -0.33093870E-07  0.92527123E-07
  0.94494976E-07 -0.77690101E-07 -0.11571500E-07 -0.45077915E-07 -0.10606533E-06
  0.32891805E-07  0.23332186E-07  0.51289437E-07 -0.52405332E-07 -0.47874663E-07

  0.49802849E-09  0.22026008E-05 -0.22588748E-08  0.41708447E-08 -0.19683167E-09
  0.40074741E-08 -0.51925933E-08 -0.22215292E-08 -0.29791386E-08  0.25668883E-08
  0.21851302E-05 -0.10860530E-07  0.21320379E-08 -0.10223091E-07  0.23253162E-08
 -0.45929904E-08  0.15712125E-08  0.24623201E-08 -0.24843644E-08  0.22006908E-05
  0.38406205E-08  0.13118853E-10  0.12333598E-07 -0.31499971E-09  0.51644111E-08
  0.92934200E-09 -0.12723424E-08  0.55505813E-08  0.21812709E-05  0.26477574E-08
  0.11833067E-08  0.56557206E-08  0.17872301E-08  0.42426438E-08  0.19379512E-08
  0.29541666E-08 -0.39072956E-08  0.21780790E-05  0.83761707E-08  0.28361175E-08
 -0.87268300E-09  0.25848716E-10 -0.52580287E-09  0.16490554E-08 -0.26559347E-08
 -0.33216640E-08  0.21759299E-05  0.10229787E-08  0.20344139E-08  0.16803952E-08
  0.17009148E-08 -0.14700770E-08 -0.39574055E-08  0.48415847E-08  0.12068869E-07
  0.21528764E-05 -0.27717483E-08  0.12354868E-08  0.23440685E-08  0.23037319E-09
 -0.18390631E-08 -0.85944323E-09  0.36037270E-08  0.44970477E-08  0.21800576E-05
  0.79517809E-08 -0.60034287E-08  0.10579418E-07  0.16611377E-08 -0.19154344E-08
 -0.10105183E-09  0.10311585E-08 -0.81823333E-08  0.21580121E-05 -0.10224641E-07
  0.44256507E-08 -0.79478988E-08  0.25378646E-08 -0.36980995E-10 -0.58254957E-09
 -0.34938205E-09  0.82923461E-08  0.21697044E-05 -0.38842749E-08  0.79446682E-08
 -0.53947014E-08 -0.17357076E-08  0.54137706E-08  0.74156486E-10 -0.24847812E-08
 -0.27674835E-09  0.22054309E-05  0.13732228E-07 -0.91648618E-09 -0.19673470E-08
  0.32853674E-08 -0.33712156E-08  0.57574811E-09 -0.16154123E-09  0.12518870E-07
  0.21816032E-05 -0.28390358E-08 -0.26021335E-08  0.12811121E-07  0.17137840E-08
 -0.13801585E-09 -0.70563565E-09  0.41089259E-08 -0.61903151E-09  0.21745699E-05
 -0.20685234E-09  0.72139558E-08 -0.11003426E-07  0.44831527E-09 -0.48168488E-08
  0.30263930E-09 -0.40837514E-08  0.43421981E-08  0.21941422E-05 -0.76807736E-09
  0.27946456E-08  0.34228707E-08  0.25403455E-08 -0.73225534E-09 -0.25392116E-08
  0.45249293E-08  0.89066199E-08  0.23302834E-05 -0.13876445E-07  0.39378670E-08
 -0.42010538E-08  0.24171155E-08 -0.23977346E-09 -0.30071561E-09 -0.30018505E-08
 -0.47307024E-06 -0.95583122E-05  0.16974757E-05 -0.16971630E-07  0.20916932E-05
 -0.18412075E-06  0.16223257E-06  0.15351152E-07  0.33440322E-07  0.15172091E-05
 -0.21002693E-05 -0.60687983E-06  0.13474559E-06  0.81912185E-07  0.96709539E-07
  0.68652059E-06 -0.48053778E-06  0.58098622E-07  0.18251329E-05 -0.34253504E-05
 -0.22370857E-06  0.52057329E-06 -0.54745893E-06 -0.70944504E-08 -0.95671727E-07
  0.72800127E-06 -0.12216811E-05  0.40867885E-06 -0.83942936E-06  0.90680355E-08
 -0.47726796E-07 -0.28311603E-06  0.10124804E-06 -0.26568128E-06  0.49908343E-06
 -0.41401359E-06  0.13630642E-05 -0.33182087E-05 -0.18402879E-06 -0.57140561E-06
  0.43145593E-06  0.46437371E-06 -0.55763036E-06 -0.41660769E-06 -0.37882107E-06
  0.83331752E-07 -0.27156954E-05  0.52629375E-06  0.25611089E-06 -0.76355918E-06
  0.26130408E-06  0.83883274E-06 -0.18278555E-06  0.38522005E-06  0.17653303E-05
 -0.36824018E-05  0.37429800E-06  0.10890787E-07 -0.72584040E-06  0.61091916E-06
 -0.14959201E-06  0.90910918E-07  0.49602911E-06  0.12254913E-05 -0.24890124E-05
 -0.47981298E-06 -0.30284477E-06 -0.70805094E-06 -0.36085896E-07  0.23434337E-06
  0.10757874E-06 -0.61592658E-06  0.87122358E-06 -0.30683120E-05 -0.70144194E-06
 -0.31301895E-06  0.24263733E-06  0.74558767E-06  0.43058606E-06 -0.37617338E-06
  0.12532053E-06  0.15532719E-06 -0.16733903E-05  0.44669371E-06 -0.37462155E-07
  0.39403953E-06  0.31417079E-06 -0.71656889E-06  0.77596502E-06 -0.93590946E-06

 -0.53594249E-09 -0.78423242E-08  0.10173923E-08 -0.20411214E-09 -0.29180692E-09
  0.79445652E-09 -0.49563840E-09 -0.35351154E-09 -0.29356677E-09  0.45199849E-09
 -0.66237807E-08  0.15651652E-08  0.91290272E-09  0.17772918E-09 -0.27284036E-09
 -0.60236804E-09 -0.41560129E-10  0.19601027E-09 -0.87372547E-09 -0.57355211E-08
 -0.27406088E-08  0.48257937E-09  0.24948137E-10  0.14311360E-08 -0.25018731E-09
 -0.89943674E-09 -0.13025310E-08  0.11071507E-08 -0.49123442E-08  0.10046238E-08
 -0.38914728E-10  0.33651994E-09  0.12308444E-08  0.26257691E-09  0.12832044E-09
  0.72442324E-09 -0.84734267E-09 -0.55256577E-08 -0.19878094E-09 -0.10335480E-09
  0.94094481E-09  0.60073176E-09 -0.49024622E-09  0.11641821E-08 -0.48236669E-09
 -0.30628379E-09 -0.76763810E-08  0.11761895E-08 -0.45447715E-09 -0.28317544E-09
  0.85343101E-09  0.55115460E-10  0.14560245E-08 -0.84239140E-10 -0.53460615E-09
 -0.58969415E-08 -0.16703719E-08  0.32154546E-09 -0.77680822E-09  0.58202392E-09
 -0.47401328E-10  0.40583754E-09 -0.61178223E-09  0.73753423E-09 -0.69204695E-08
 -0.15934912E-08  0.24042324E-09 -0.68743606E-09  0.10671925E-08 -0.49673154E-10
  0.26642619E-09  0.91191735E-09  0.35083188E-08 -0.53998432E-08 -0.47995377E-09
 -0.99474671E-09 -0.35151842E-09  0.31995274E-09 -0.87231872E-09  0.29828686E-09
 -0.31873432E-09  0.91360150E-09 -0.66853808E-08  0.25998751E-09  0.86330563E-09
  0.12299619E-08 -0.19434351E-08  0.63191047E-09 -0.39832643E-10 -0.44524855E-10
  0.87749286E-09 -0.58367688E-08 -0.40647336E-08  0.16346991E-09  0.37403810E-09
 -0.66949117E-09 -0.25684129E-09 -0.81564955E-10 -0.31674025E-11  0.18556519E-08
 -0.37307095E-08 -0.33577799E-08 -0.29425130E-09 -0.86331677E-09 -0.13481613E-08
  0.41806429E-09 -0.20648074E-09 -0.16378660E-08  0.72289835E-09 -0.69084198E-08
 -0.13950784E-08 -0.41027896E-09  0.18929742E-09 -0.36064536E-09  0.59845363E-09
 -0.78716626E-09 -0.59352794E-09 -0.19940030E-08 -0.94128544E-08 -0.79480432E-10
  0.41689902E-09  0.59070581E-09 -0.19937417E-08  0.69972610E-09  0.36332671E-09
  0.11369861E-08 -0.40691676E-08 -0.13876445E-07  0.97072970E-07 -0.11393337E-08
  0.26466760E-09  0.29470195E-08  0.13507529E-09 -0.20505520E-09 -0.61393841E-10
  0.81003191E-07  0.10275314E-07 -0.16432138E-06 -0.17554004E-07 -0.11658307E-08
 -0.14293751E-07 -0.45937151E-07 -0.65889412E-07 -0.36047446E-07  0.48716230E-07
  0.45395758E-07 -0.69508612E-07  0.74124286E-07 -0.13548324E-07  0.69037850E-09
  0.11655330E-07 -0.71055373E-07  0.70910187E-07  0.13785865E-07 -0.72530530E-08
 -0.69930167E-07  0.33261078E-07 -0.81258989E-07 -0.11151776E-06  0.23287033E-07
  0.28909177E-07 -0.52251352E-07 -0.18424218E-07  0.78923029E-08  0.36492690E-08
 -0.48162827E-07  0.80473706E-08  0.92454484E-07 -0.62908822E-08 -0.46200643E-07
 -0.43088337E-07  0.21604324E-07  0.56164218E-07 -0.12690772E-06  0.17544142E-08
  0.44900707E-07 -0.69751032E-07  0.28638726E-07 -0.26857559E-07 -0.96979206E-08
 -0.34796178E-07  0.51991721E-07  0.22013239E-07 -0.51884735E-07  0.34486957E-07
 -0.80926515E-07  0.27440494E-07  0.99439976E-07 -0.30402557E-09 -0.28334492E-07
 -0.25247283E-07 -0.44225215E-07 -0.17251907E-07  0.59736119E-07 -0.35977954E-07
  0.20059626E-07  0.51983077E-07 -0.65257338E-07 -0.54424918E-07  0.28459582E-07
  0.12177480E-06  0.55002332E-07 -0.28235130E-07 -0.36309867E-07 -0.39558175E-08
 -0.29213081E-07  0.10700781E-06 -0.43941327E-07 -0.62791279E-07  0.11475777E-06
 -0.43717796E-07  0.10875022E-06  0.12440104E-06  0.61357385E-07 -0.14870508E-06
  0.15426447E-07  0.19160440E-07 -0.19034397E-08 -0.31448201E-07  0.60654525E-08
 -0.17613409E-07 -0.53379645E-07 -0.94781066E-07  0.67262625E-08  0.66804635E-09

 -0.17193118E-08  0.32972341E-08  0.51501190E-09 -0.13049621E-08  0.84130295E-09
  0.78566547E-09 -0.24265106E-09 -0.14376178E-09 -0.62251970E-10  0.11789303E-08
  0.24925445E-08 -0.11536275E-10 -0.62533567E-09  0.99183796E-09  0.43833649E-09
  0.10056650E-08 -0.22197011E-10  0.15079376E-09  0.29156892E-08  0.20328307E-08
  0.11429630E-08 -0.85694004E-09  0.49924638E-09  0.85562401E-09 -0.14596729E-09
  0.15051173E-09  0.11429056E-09 -0.33505980E-09  0.39485659E-08  0.94091871E-09
  0.18445211E-09  0.47508385E-09  0.61998965E-09  0.56192003E-10  0.11447615E-08
 -0.26564498E-09 -0.71782674E-09  0.32682939E-08 -0.14024206E-08 -0.17131726E-08
  0.60090123E-09  0.72320851E-09 -0.84462310E-09 -0.39733984E-09 -0.19760500E-09
  0.11740099E-09  0.37197630E-08 -0.27552462E-09 -0.11431696E-08  0.83424579E-09
  0.76817179E-09  0.14879550E-09 -0.29460284E-09  0.64172228E-10  0.21460522E-08
  0.43824194E-08  0.46985873E-09 -0.15104029E-08  0.54165486E-09  0.85227814E-09
 -0.49045366E-09  0.10248434E-09  0.34877767E-09  0.13642287E-08  0.33687184E-08
  0.24696018E-09 -0.19710639E-09  0.84103675E-09  0.10457334E-08 -0.42765888E-09
  0.23070628E-09 -0.59098420E-10  0.85217246E-09  0.26814978E-08  0.99231326E-09
 -0.39308042E-09  0.43933252E-09  0.44130421E-09  0.27560653E-11  0.22086717E-09
 -0.76338483E-10  0.86375422E-09  0.36223327E-08  0.95428352E-10 -0.15711069E-09
  0.34402099E-09  0.93659379E-09 -0.24715130E-09  0.66871716E-09 -0.33802127E-09
  0.11325003E-08  0.30027988E-08 -0.37038238E-09 -0.18068151E-08  0.98920974E-09
  0.10331599E-08 -0.68707747E-09 -0.13231688E-11  0.64798408E-10  0.92728894E-09
  0.32132119E-08 -0.16778568E-09 -0.26091668E-10  0.10134712E-08  0.74152042E-10
  0.68678326E-09 -0.73756010E-09 -0.39467755E-10 -0.82806829E-09  0.38056354E-08
  0.10669534E-08 -0.15587904E-08  0.95417357E-09  0.83767239E-09 -0.81678296E-10
  0.23174710E-09  0.28671423E-09  0.26528099E-08  0.26377488E-08 -0.29097599E-09
 -0.18974181E-08  0.14581962E-08  0.89546994E-09 -0.35046255E-09 -0.36882605E-09
 -0.28718911E-09 -0.99453367E-09  0.39378670E-08 -0.11393337E-08  0.42394246E-07
 -0.10603002E-07 -0.84168053E-08  0.21713083E-09 -0.26436638E-08  0.61678244E-09
  0.22761674E-07  0.28149217E-07 -0.33041889E-07 -0.49603025E-08 -0.38467693E-07
  0.43148440E-07  0.25275555E-07 -0.28365501E-07  0.14342887E-07  0.14511436E-07
 -0.18229063E-07  0.25071833E-08 -0.22536815E-07  0.79350815E-08 -0.19846423E-09
  0.59162875E-07  0.57403063E-08 -0.10629692E-07 -0.29635995E-07 -0.13005438E-07
  0.23146090E-07 -0.37759090E-07  0.25702505E-07  0.22005372E-07  0.21247423E-07
 -0.98645363E-08  0.19610784E-07  0.17362818E-07 -0.31778399E-07  0.30247491E-07
  0.10594444E-06 -0.10787116E-07 -0.36068950E-07 -0.39358993E-07 -0.41454377E-07
  0.76533997E-08 -0.16281107E-07 -0.59683872E-08  0.48871678E-08  0.23152318E-07
 -0.12411403E-07  0.15525562E-08  0.28866053E-07  0.85982491E-08 -0.34767040E-08
  0.68446195E-07  0.57376530E-09  0.17253025E-07  0.16446991E-06 -0.61106941E-07
 -0.13396179E-07  0.28340365E-07  0.36392341E-07 -0.30197999E-11 -0.44619780E-07
 -0.14837860E-07  0.32073282E-07  0.17077521E-08 -0.25188515E-07 -0.10054079E-07
  0.35433970E-08 -0.24430050E-07  0.51729080E-08 -0.11263283E-07  0.23591236E-07
  0.67345775E-08  0.10880145E-07  0.17658120E-08 -0.18393702E-08 -0.29322338E-07
 -0.97595637E-08  0.36338244E-08  0.21799589E-07  0.27156217E-08 -0.10260998E-07
 -0.61907728E-07  0.53526738E-08  0.42503417E-07 -0.34336151E-07 -0.40176955E-08
  0.12616640E-08  0.33139439E-07 -0.20622155E-07 -0.14896265E-08  0.47980385E-07
 -0.29974431E-07  0.17210120E-07  0.10472880E-07 -0.11238652E-07  0.14425408E-07

  0.51270885E-09 -0.53936255E-08 -0.48224396E-09  0.85569364E-09 -0.54128719E-09
  0.54877178E-09 -0.30900306E-09  0.15788261E-10 -0.38104206E-09 -0.83743514E-10
 -0.70717851E-08 -0.27418695E-09  0.53226852E-09  0.56242037E-09  0.15707996E-09
  0.53150087E-09 -0.22039234E-09  0.49920083E-09  0.17711287E-09 -0.33195987E-08
 -0.73343581E-09  0.41695851E-09 -0.25747878E-09  0.38692664E-09  0.60511669E-09
  0.38540664E-10  0.33922215E-10  0.39048044E-09 -0.38721711E-08  0.54761939E-09
  0.42706920E-09 -0.49436126E-09  0.92802371E-09 -0.54983338E-09 -0.38168064E-11
  0.49683123E-09 -0.82381762E-09 -0.55529679E-08  0.49309016E-10  0.59261343E-09
 -0.19459907E-08  0.76025459E-09 -0.14852190E-09  0.51495327E-09 -0.61735860E-10
 -0.42349426E-09 -0.56363773E-08 -0.11782596E-09  0.78336102E-09 -0.14464714E-08
  0.74486859E-09  0.36207579E-09 -0.35242667E-10 -0.81028253E-09 -0.45832601E-09
 -0.42020551E-08  0.70440539E-09  0.34267964E-09 -0.12673414E-08  0.66018456E-09
 -0.18000759E-09  0.85533754E-10  0.25511256E-09 -0.97026879E-09 -0.46683778E-08
 -0.28971007E-09  0.71681979E-09 -0.40802102E-09 -0.60736029E-10  0.25804868E-09
  0.92060142E-12  0.45303594E-09  0.56527265E-09 -0.61182918E-08 -0.37544945E-09
  0.44283575E-09 -0.10818513E-08  0.97458509E-09 -0.58876231E-09 -0.29994680E-09
  0.34283249E-09 -0.67839135E-10 -0.70880229E-08 -0.17877675E-09  0.26163702E-09
  0.35970704E-09  0.55979001E-09  0.70739612E-09 -0.67869170E-10  0.48429958E-09
 -0.10285668E-09 -0.65388559E-08 -0.52808838E-09  0.98551710E-09 -0.13623843E-08
  0.85744498E-09 -0.55795956E-09 -0.94206052E-10 -0.33007194E-09  0.77561813E-09
 -0.31500759E-08  0.16371984E-08  0.60324162E-09 -0.11681574E-08 -0.32871952E-09
  0.87151485E-09 -0.24359405E-10  0.24003907E-10 -0.52396541E-09 -0.59216917E-08
 -0.57571776E-10  0.99122303E-09  0.48432920E-11  0.26987042E-09 -0.39863164E-09
  0.54446412E-10 -0.19193487E-09 -0.98330918E-09 -0.34340306E-08 -0.51353070E-10
  0.13579545E-08 -0.34117043E-08  0.16674187E-08 -0.37415781E-09  0.35613655E-09
  0.34237769E-09  0.32348826E-09 -0.42010538E-08  0.26466760E-09 -0.10603002E-07
  0.43477582E-07 -0.88275086E-08  0.18533611E-09 -0.48630135E-09 -0.32407947E-08
 -0.15889022E-07  0.33713549E-07  0.22978069E-07 -0.35983806E-07 -0.14338513E-07
  0.14123393E-07  0.21428109E-07  0.83202441E-08 -0.57003188E-07  0.64685629E-08
  0.23006929E-07  0.21703220E-07  0.29004158E-07  0.12157555E-07 -0.57853538E-08
 -0.55294351E-08  0.41711828E-08  0.31102012E-07 -0.17831127E-07 -0.69134210E-07
 -0.32935644E-07  0.34741997E-07 -0.28415636E-07 -0.15096314E-07 -0.26442742E-07
  0.11804217E-07 -0.23173678E-07 -0.11310554E-07  0.33150695E-07 -0.46183914E-08
 -0.11254349E-07 -0.22090565E-07 -0.10203097E-07  0.16787685E-07  0.30755069E-07
 -0.75613340E-08  0.16460916E-07  0.28993687E-07  0.34005182E-07  0.20549138E-07
  0.39990825E-07 -0.19478644E-07 -0.12084634E-07  0.10500770E-07  0.27657646E-07
 -0.16611469E-07 -0.81209227E-08  0.11373805E-07 -0.63240778E-07  0.14930272E-06
  0.12743665E-07 -0.51629976E-08 -0.12237091E-07  0.17428876E-07 -0.28148923E-07
  0.16585385E-07 -0.44384775E-07 -0.18889168E-07  0.58806396E-07 -0.59648242E-08
 -0.39072219E-08  0.94733146E-08 -0.15210593E-07  0.45094153E-08  0.36989211E-07
 -0.20828419E-07  0.70502120E-08 -0.44760876E-07  0.13702214E-07 -0.17283508E-07
  0.10951978E-07 -0.24664265E-07 -0.19784641E-07  0.23850373E-07 -0.13038477E-07
  0.41828910E-07 -0.84468349E-07  0.22346950E-07 -0.28127111E-07  0.46053723E-08
  0.37670808E-07 -0.15580277E-07 -0.42865714E-07 -0.58523998E-08 -0.26475229E-07
  0.68925978E-07 -0.87019883E-08 -0.24518945E-07  0.10609975E-07 -0.47040859E-07

 -0.96652046E-10  0.27558412E-08  0.12284451E-08  0.78391483E-09  0.54181482E-09
 -0.51883126E-09 -0.75088691E-11 -0.98646611E-10  0.39181570E-09 -0.43270605E-09
  0.23780782E-08  0.22713868E-08  0.52932015E-09  0.34336205E-09  0.22539689E-09
 -0.67015544E-09  0.27761621E-09 -0.16886962E-09  0.18203922E-09  0.22114825E-08
 -0.18886539E-08  0.10709245E-08  0.49807368E-09 -0.99889735E-09 -0.96493654E-10
 -0.10318246E-08 -0.90238567E-10 -0.42326638E-10  0.20019877E-08 -0.20420132E-09
  0.67804259E-09  0.94357079E-09 -0.37232445E-09 -0.62729358E-10 -0.19453654E-10
  0.42721263E-09  0.18690577E-09  0.23187226E-08 -0.16726653E-08  0.55713951E-09
  0.73722002E-09  0.82779483E-09  0.19532788E-09 -0.21503606E-09  0.32744230E-09
 -0.62593226E-09  0.26863071E-08  0.46674600E-09  0.85688352E-09  0.66985095E-09
 -0.12581511E-08 -0.13211145E-09  0.81081541E-11 -0.24387487E-09 -0.99516478E-10
  0.95455127E-09  0.75095507E-09  0.91832171E-09  0.61740253E-09 -0.17608420E-09
  0.27523003E-09 -0.12985463E-09 -0.65207387E-09 -0.21199851E-09  0.30042453E-08
 -0.66434722E-10  0.97698755E-09 -0.63203461E-11 -0.14511990E-09  0.11345987E-09
  0.49758785E-09  0.89769080E-10 -0.36881976E-09  0.27834163E-08 -0.17591877E-08
  0.34561418E-09  0.10865091E-08 -0.10379419E-08 -0.10987562E-09 -0.21125958E-09
  0.25772768E-09 -0.81497407E-09  0.17774609E-08 -0.13636682E-09  0.10478550E-08
  0.77872746E-09 -0.11240591E-08  0.70050252E-10  0.20021905E-09 -0.16429785E-09
  0.20777746E-09  0.19648156E-08  0.10020762E-08  0.98446806E-09  0.92296350E-09
 -0.21862729E-08 -0.13558856E-09  0.19904107E-09 -0.14857481E-09 -0.37682081E-09
  0.24961594E-08 -0.81563225E-09 -0.41650565E-10 -0.12830481E-09  0.27479968E-08
 -0.18344727E-09  0.85429644E-10  0.40913238E-09  0.39287394E-09  0.23503636E-08
 -0.22707350E-08  0.78371920E-09  0.41627719E-09 -0.47115605E-09 -0.67165359E-12
 -0.11557809E-09 -0.31629481E-09  0.25361438E-09  0.22217379E-08 -0.18863861E-08
  0.10375543E-08  0.16907558E-08 -0.34176185E-08 -0.11163058E-09 -0.54893019E-09
 -0.44455529E-10 -0.12636000E-09  0.24171155E-08  0.29470195E-08 -0.84168053E-08
 -0.88275086E-08  0.30106415E-07  0.94100269E-10  0.11939659E-08 -0.17692550E-08
  0.79119838E-08 -0.25816053E-07  0.79354737E-08  0.36688420E-07 -0.49487245E-08
 -0.12959117E-06 -0.41593943E-07  0.12757424E-07  0.29432307E-07 -0.18920177E-07
 -0.39288177E-08 -0.13223987E-08 -0.85740630E-08 -0.14080569E-07  0.46473838E-07
 -0.22449561E-08 -0.15798401E-07  0.12950752E-07  0.72248744E-09  0.39471782E-07
  0.31586318E-08  0.23088067E-07 -0.27160742E-07 -0.48282553E-08  0.55079787E-08
  0.20120533E-08 -0.13201000E-07  0.71566658E-08 -0.13962656E-07  0.59478843E-08
 -0.53973788E-07 -0.64411749E-08  0.82237268E-07  0.19309696E-08 -0.16332106E-07
  0.13309285E-08  0.16088806E-07 -0.15882986E-07 -0.37814965E-07 -0.10321089E-07
 -0.37043925E-08  0.58685915E-07  0.16014391E-07 -0.51680887E-09 -0.13120017E-07
 -0.55630910E-08 -0.40611931E-08 -0.11250469E-07  0.73804411E-08  0.22853739E-07
 -0.22256784E-07 -0.19588431E-07 -0.14007118E-07 -0.16120766E-07 -0.38692947E-08
 -0.64326043E-08 -0.21629410E-08 -0.16064488E-07 -0.93511978E-08  0.30923379E-07
  0.67215397E-08  0.87915653E-08  0.66412967E-08 -0.16328677E-07 -0.38727503E-08
 -0.51202510E-08 -0.31842921E-07 -0.84459745E-08  0.30087379E-08  0.22081970E-07
 -0.25190713E-07  0.12856773E-07 -0.23207150E-07 -0.62554865E-09  0.25686982E-07
  0.13330251E-07  0.10135940E-07  0.11091669E-07  0.31981455E-08 -0.22884413E-07
  0.10373262E-07  0.26510297E-07  0.78854256E-09  0.62815052E-07  0.10001528E-07
 -0.23965648E-07  0.67317984E-08  0.19051185E-08 -0.49647818E-07 -0.13671343E-08

  0.18179556E-09 -0.12616918E-08 -0.45880289E-09  0.32505602E-09  0.37661458E-10
 -0.27576647E-09 -0.26515554E-09  0.26095933E-09  0.19636967E-09  0.78810274E-10
 -0.47606760E-09 -0.31446554E-09 -0.39536417E-09  0.60401655E-09 -0.21043281E-09
 -0.27723695E-10 -0.13568827E-09 -0.68272188E-10 -0.70328850E-10 -0.12562272E-08
 -0.33032047E-09 -0.14241674E-09 -0.65460702E-10 -0.24149676E-09 -0.11209220E-08
  0.30595189E-09  0.36539590E-09  0.11637825E-09 -0.22768741E-09 -0.39006976E-09
 -0.64575711E-09 -0.19847713E-09  0.34685870E-09  0.14234226E-09 -0.22001806E-09
  0.12214256E-09  0.41974015E-09  0.41103014E-09 -0.45785351E-09 -0.12527974E-09
 -0.48962780E-10  0.10678844E-10 -0.60863664E-09 -0.66477390E-09  0.42731323E-09
  0.15197075E-09  0.24593649E-09 -0.15918774E-09 -0.17247009E-09 -0.19078372E-09
  0.27434807E-09 -0.11460355E-08  0.19777866E-09  0.11463215E-09 -0.20073036E-09
 -0.96156057E-10  0.17930638E-09  0.89692814E-09 -0.24671798E-10 -0.26426892E-09
 -0.95630609E-09  0.15212007E-10 -0.57371347E-09 -0.52782624E-09 -0.39008169E-09
  0.35475921E-09  0.45821256E-09 -0.75237276E-09 -0.17064859E-09  0.95323539E-10
  0.18200387E-09 -0.15835013E-09 -0.15160430E-08  0.12103651E-08  0.67756774E-09
  0.17490631E-09  0.17964985E-09  0.73357809E-10 -0.29537209E-09  0.19008253E-09
 -0.21136534E-09  0.16520584E-08  0.94895492E-09  0.12135163E-08  0.57218671E-09
  0.70529701E-10 -0.76117647E-10  0.32758824E-09 -0.46180802E-09 -0.37000652E-09
  0.46545191E-09  0.11425174E-08 -0.11426610E-09 -0.12722404E-09  0.24357072E-09
  0.33834466E-10  0.53621585E-09 -0.56937538E-10  0.34179370E-09 -0.16742100E-08
 -0.76285292E-09  0.42008526E-09  0.71019105E-10  0.62788002E-09  0.17063181E-09
 -0.11055928E-08 -0.17199985E-09 -0.27496512E-09  0.41835022E-09 -0.28822805E-09
 -0.54059821E-09  0.51527767E-10  0.65276467E-10  0.10970300E-10 -0.11163344E-09
 -0.91491870E-10 -0.34900263E-09  0.56138302E-09  0.72569244E-09  0.16335141E-09
 -0.42142319E-09 -0.69133076E-09  0.13805882E-09 -0.15881822E-08  0.37641963E-10
 -0.36475092E-10 -0.15718119E-09 -0.23977346E-09  0.13507529E-09  0.21713083E-09
  0.18533611E-09  0.94100269E-10  0.27248149E-07 -0.16524617E-08 -0.22348138E-08
 -0.28573483E-07 -0.29329650E-07 -0.17053848E-07 -0.39790425E-09  0.20016144E-07
 -0.14596400E-07  0.10899695E-07  0.28570851E-07 -0.21930732E-07 -0.13827073E-07
 -0.88727249E-08  0.76342089E-08  0.40014741E-08  0.94642892E-08  0.14163617E-07
 -0.27735348E-07  0.45940656E-09  0.92152200E-09  0.21785067E-08  0.44859540E-07
  0.82822612E-09  0.12670437E-07  0.38877533E-07 -0.14790233E-07 -0.26252265E-07
  0.19324306E-07 -0.91176324E-08 -0.39591188E-08  0.20617555E-07 -0.12366605E-07
 -0.11713958E-07  0.11236567E-07  0.24576018E-08 -0.11993312E-07 -0.25526624E-08
 -0.16018768E-07  0.28577704E-07  0.10765997E-07 -0.29514980E-08 -0.40350752E-07
 -0.37086956E-08  0.57406064E-08  0.20064998E-07 -0.21024392E-07 -0.16534859E-07
 -0.50970267E-07  0.57013200E-08  0.27048220E-08  0.57675963E-08  0.12698852E-07
  0.16449672E-08  0.85784870E-07 -0.98789949E-08  0.14819752E-07 -0.11592096E-07
 -0.85031056E-08  0.17853798E-08 -0.24325495E-07  0.42234061E-08  0.12825429E-07
  0.47460466E-07  0.66922559E-09  0.19899643E-08  0.24068876E-08  0.75721329E-09
 -0.68924227E-09 -0.24106883E-07  0.58884565E-08  0.66732781E-08  0.12758093E-07
 -0.94731065E-08  0.84403107E-08 -0.32892512E-08 -0.14693393E-07  0.61570594E-08
 -0.47128721E-07  0.31284786E-07  0.15786560E-07 -0.67619411E-08 -0.43956170E-08
  0.33799913E-07  0.31030608E-07 -0.20988482E-07 -0.14302233E-07  0.44545968E-07
  0.45528542E-07 -0.28412941E-07  0.16637685E-07 -0.52402481E-08 -0.10810522E-08

  0.60183445E-09 -0.14557288E-08 -0.59462288E-09 -0.17357386E-09 -0.14129520E-09
 -0.10320284E-10 -0.53774306E-10 -0.11340903E-08  0.13194650E-09  0.15064521E-08
 -0.17004542E-08 -0.49874102E-09 -0.10668956E-09 -0.34933657E-09  0.21864157E-09
  0.27970506E-09 -0.58415427E-09 -0.10065746E-09 -0.44907509E-09 -0.93055872E-09
  0.91512888E-09  0.31039945E-10  0.51600439E-10 -0.93854552E-09  0.33952045E-09
 -0.10082742E-08 -0.77624718E-10  0.89968110E-09 -0.13547987E-08 -0.41596472E-09
  0.78650076E-09 -0.30596902E-10 -0.36596858E-10 -0.55376399E-10 -0.58067295E-09
 -0.40178581E-10 -0.23476268E-08 -0.14859428E-08 -0.77698828E-10 -0.52985692E-09
  0.38280076E-09 -0.99699203E-10 -0.18715909E-09 -0.46522058E-09  0.43687345E-10
  0.22791220E-10 -0.14480424E-08 -0.73823050E-09 -0.13858601E-09 -0.48424304E-10
 -0.19087695E-10 -0.26588984E-09 -0.10380665E-08  0.14951342E-09  0.80193492E-09
 -0.10333563E-08  0.66587750E-09 -0.54701711E-10  0.70469869E-10 -0.22804348E-09
  0.16470939E-09 -0.46455969E-09 -0.12755733E-10  0.51804448E-09 -0.77382449E-09
 -0.56133365E-10  0.17964771E-09 -0.98561495E-10  0.42896739E-09  0.19656448E-09
  0.43475351E-09  0.16627946E-09  0.65402422E-09 -0.67433983E-09 -0.25051111E-09
  0.24006659E-09 -0.23698375E-09 -0.30184876E-09  0.21754762E-09 -0.10556508E-08
 -0.15914835E-09  0.73477757E-10 -0.51567042E-09 -0.59294702E-09  0.51981724E-09
 -0.19857504E-09  0.38638896E-09 -0.39816512E-09 -0.16215370E-09  0.39467429E-09
  0.57805638E-10 -0.90066781E-09  0.45869215E-09 -0.33623140E-10 -0.19461678E-10
  0.11622740E-09 -0.25928645E-09 -0.14087237E-08 -0.26019799E-09  0.78920316E-10
  0.32388861E-09 -0.43802186E-10 -0.82543923E-09 -0.35271448E-10  0.78096538E-11
  0.32407789E-09  0.40183562E-09  0.17047573E-09  0.17521169E-10 -0.13625224E-08
  0.34507457E-09  0.32238153E-09 -0.76361258E-10 -0.36130640E-11  0.10394827E-09
 -0.85359090E-09  0.34250269E-10 -0.12468719E-08 -0.13682220E-08  0.13199513E-08
 -0.44712488E-09  0.46475613E-09 -0.65521446E-09 -0.26040384E-09 -0.22251204E-08
 -0.33814572E-09  0.20186608E-09 -0.30071561E-09 -0.20505520E-09 -0.26436638E-08
 -0.48630135E-09  0.11939659E-08 -0.16524617E-08  0.21308990E-07  0.15331017E-09
  0.14123920E-07  0.37343302E-08  0.10974968E-07 -0.15090667E-07  0.47170547E-08
  0.87547659E-08 -0.60034139E-08  0.24519490E-08 -0.17521454E-07  0.11442155E-07
  0.17057718E-07  0.35951565E-09 -0.27216948E-08  0.10424351E-07 -0.43603137E-08
 -0.32060398E-09  0.19947115E-07  0.17183088E-08  0.20025791E-07  0.12992913E-07
 -0.79968837E-08  0.49134448E-08 -0.18129250E-08  0.46315696E-08 -0.18614521E-09
  0.18087260E-07  0.10603279E-07  0.41659723E-07  0.88687153E-08  0.13697919E-07
 -0.29843378E-07  0.15009221E-07 -0.11112762E-07  0.52163377E-08 -0.37133292E-08
 -0.48952036E-08  0.56692503E-08 -0.65516473E-08  0.16459372E-07  0.37167567E-07
  0.76546808E-08 -0.18724897E-07 -0.22400860E-07  0.29412021E-07  0.20243402E-07
  0.47299508E-07 -0.87297736E-08  0.72429300E-08  0.39866393E-07  0.32884272E-09
 -0.47331165E-08 -0.18946744E-07  0.43389800E-07 -0.18749224E-07  0.13798569E-07
  0.84734210E-08 -0.13686034E-07  0.14391051E-08  0.26680222E-08 -0.12583648E-09
  0.15306943E-07 -0.12901732E-07  0.33619931E-08 -0.83912246E-08 -0.12893127E-07
 -0.14145938E-07 -0.37159750E-08  0.64728907E-08 -0.20905805E-07 -0.19778948E-07
 -0.10617047E-07  0.20653077E-08  0.90739277E-08 -0.41820866E-08 -0.36979096E-08
 -0.71028351E-08 -0.80811883E-08 -0.91979492E-08  0.73526561E-08  0.17494264E-07
 -0.15504270E-07  0.17906407E-07 -0.37895074E-08  0.22052741E-07 -0.23218722E-07
  0.83633242E-08 -0.36686839E-07 -0.13494116E-07  0.23773197E-07  0.85369692E-08

 -0.35041267E-09 -0.58459626E-08 -0.48063109E-09  0.18631573E-09  0.20446005E-09
 -0.36701901E-09  0.17323327E-09 -0.13095561E-09  0.22696112E-09 -0.66849630E-09
 -0.44528532E-08 -0.81319746E-10 -0.24077669E-09  0.16728861E-09 -0.64574097E-10
 -0.10366847E-10 -0.27840809E-09 -0.96731246E-10 -0.46388279E-09 -0.40951219E-08
 -0.97642212E-09  0.86607695E-11  0.16219514E-09  0.30441832E-09  0.41068543E-09
 -0.39510198E-09 -0.41611029E-09 -0.53351885E-09 -0.46453517E-08  0.45683421E-10
  0.16746698E-09 -0.68376352E-09 -0.54699917E-09  0.35109499E-09 -0.67631307E-10
  0.21240742E-09 -0.39116204E-09 -0.34677938E-08 -0.21961721E-09  0.89217278E-10
 -0.10157958E-08 -0.30394789E-09  0.36771433E-09 -0.46251302E-10 -0.14875390E-09
 -0.64532788E-10 -0.56862105E-08  0.27417601E-09 -0.58156886E-09  0.92238924E-09
  0.82173668E-09  0.77666315E-10  0.44432293E-09 -0.89945755E-09 -0.42840448E-10
 -0.31588681E-08 -0.15421279E-08  0.13123462E-09  0.48848762E-09 -0.74436836E-09
 -0.43830359E-09  0.38936160E-11  0.48530541E-09  0.45338939E-09 -0.42502113E-08
 -0.85037270E-10  0.26136245E-09  0.26528820E-10 -0.34644987E-09 -0.25629892E-09
 -0.39895788E-09 -0.61839926E-09  0.62298575E-09 -0.42980519E-08 -0.82217577E-09
 -0.11987252E-09  0.48182509E-10  0.47870543E-09 -0.51848360E-10  0.33797532E-09
  0.10373679E-09  0.70367976E-09 -0.20714398E-08  0.87770502E-09 -0.57315524E-09
 -0.20390847E-10  0.60485389E-09 -0.44258376E-09  0.46141243E-09  0.75458135E-09
 -0.10826847E-09 -0.35540825E-08  0.10464951E-08 -0.42115454E-09  0.36933521E-09
  0.25096911E-09  0.48212645E-09  0.24977980E-09  0.37881214E-09  0.26728796E-09
 -0.61981000E-08 -0.17105542E-08  0.58805164E-09 -0.14768770E-08 -0.36089627E-09
 -0.15761871E-09  0.66331758E-09  0.25450228E-09 -0.38843842E-09 -0.49992239E-08
  0.88552722E-09 -0.22331863E-09  0.74600260E-10  0.16699491E-09 -0.51596635E-09
  0.88598343E-10 -0.36471172E-09  0.36289904E-09 -0.39548058E-08  0.16038611E-08
 -0.12386781E-09  0.33727097E-09 -0.21734411E-09  0.12960838E-09 -0.25775021E-09
 -0.53234216E-09  0.90416190E-10 -0.30018505E-08 -0.61393841E-10  0.61678244E-09
 -0.32407947E-08 -0.17692550E-08 -0.22348138E-08  0.15331017E-09  0.23234623E-07
 -0.97070271E-11  0.55279350E-07 -0.14377830E-07  0.66462897E-08  0.14933740E-08
  0.22375596E-07 -0.16514627E-07 -0.78925936E-08 -0.84279832E-08 -0.13147298E-08
 -0.73996038E-08  0.71546210E-09 -0.10262275E-07  0.32076089E-07 -0.44799667E-08
 -0.12016521E-07  0.28902766E-07 -0.27594295E-08  0.14626917E-07 -0.17077630E-07
  0.23522099E-07  0.17444227E-07 -0.25279374E-07 -0.42309833E-08 -0.96745643E-08
 -0.12213334E-07 -0.23014564E-07 -0.11703285E-07 -0.11319668E-08  0.15844648E-08
  0.46144827E-09 -0.24080728E-08 -0.18957170E-07 -0.18492070E-07 -0.12340954E-10
  0.36050478E-07 -0.51644073E-08  0.47213806E-08 -0.61281433E-08  0.12451228E-07
 -0.51893122E-07 -0.17160094E-07 -0.80547257E-08 -0.56289700E-08  0.13809077E-07
  0.13935869E-07  0.43115325E-07 -0.10211391E-07  0.52681791E-08 -0.16448449E-07
 -0.13663127E-07  0.77431557E-08 -0.37792548E-09 -0.27238640E-08  0.11612228E-07
  0.57474958E-08 -0.14396376E-07  0.24465957E-07  0.47852011E-08 -0.46693318E-07
 -0.10089342E-08  0.50186079E-08  0.41622486E-07  0.10466758E-07 -0.20283161E-07
  0.24022016E-07 -0.21200975E-07  0.16989754E-07  0.11547416E-07  0.25875468E-07
 -0.32795057E-08  0.50602066E-07  0.17431229E-07  0.19077891E-07  0.17001786E-07
 -0.95924904E-08  0.13964722E-07  0.10230901E-07  0.21469459E-07  0.25097039E-07
  0.19558942E-07 -0.10991982E-07 -0.18369154E-07  0.15556563E-07 -0.24390167E-07
  0.20696570E-07  0.25920480E-07 -0.12215644E-07 -0.13250532E-07 -0.16684233E-07

 -0.37239922E-07 -0.52242837E-06  0.23141519E-07 -0.13981349E-07  0.25715513E-07
 -0.94071450E-08  0.12675225E-07  0.37361913E-07  0.74722465E-09  0.26380336E-06
 -0.29213876E-06 -0.54943185E-07 -0.63352893E-07  0.84318711E-07 -0.39328447E-07
  0.16725192E-07 -0.11001440E-07 -0.10004370E-07  0.11943939E-06 -0.36605411E-06
 -0.15213221E-06  0.39144405E-07 -0.80484258E-07  0.43841853E-07 -0.14381956E-07
 -0.32956825E-07  0.85469776E-08  0.66259426E-07 -0.48517102E-06  0.12546375E-07
  0.75506651E-07 -0.28009774E-07 -0.59653545E-08  0.81532333E-08  0.69369158E-08
  0.64261769E-08 -0.31002958E-08 -0.55825732E-06 -0.77274039E-07  0.11898489E-07
 -0.19762947E-07  0.15838862E-07  0.54868227E-08  0.24473086E-07 -0.44498751E-08
  0.26436670E-06 -0.50418079E-06 -0.76648294E-07 -0.74560213E-07  0.50152954E-07
  0.56348332E-08  0.38571900E-08 -0.80080410E-08 -0.17898468E-08 -0.58754548E-07
 -0.46006018E-06  0.24384099E-07  0.10160493E-08  0.10967121E-07 -0.59090615E-08
 -0.18327868E-07 -0.10170157E-07  0.10883814E-07  0.10313326E-06 -0.54293970E-06
 -0.86771654E-07 -0.10520288E-08 -0.13154383E-07  0.75599858E-09  0.39179198E-07
 -0.28990389E-07  0.19710807E-07  0.11403867E-06 -0.32297434E-06  0.89891135E-07
  0.70815644E-07  0.12904052E-07 -0.18061432E-07  0.11221882E-07  0.10499127E-07
  0.19653710E-07 -0.13407903E-08 -0.53035649E-06 -0.20985908E-07 -0.82305047E-07
  0.20066267E-07  0.19572105E-07 -0.21963230E-08  0.37227066E-08 -0.11101876E-07
 -0.14870948E-06 -0.43314711E-06  0.26198122E-07 -0.28914371E-07 -0.24502300E-07
  0.29872872E-07  0.77127583E-08  0.98532604E-08  0.46958283E-08  0.14312565E-06
 -0.51398123E-06 -0.74725026E-07  0.24893729E-07  0.14021319E-07  0.22454196E-07
  0.23099265E-07  0.27608576E-07 -0.15171265E-07  0.10698832E-06 -0.53013104E-06
 -0.24991921E-07  0.31364677E-07 -0.23235163E-07  0.13347566E-07  0.29807043E-07
 -0.65123983E-08  0.24095277E-07  0.86635146E-07 -0.52587833E-06  0.79421954E-08
 -0.41546683E-07  0.38917867E-07 -0.14770011E-07 -0.45613216E-07 -0.99063077E-08
  0.16945595E-07  0.93418054E-07 -0.47307024E-06  0.81003191E-07  0.22761674E-07
 -0.15889022E-07  0.79119838E-08 -0.28573483E-07  0.14123920E-07 -0.97070271E-11
  0.17015230E-03  0.22554246E-04 -0.10797113E-05 -0.89717787E-05  0.68170592E-05
 -0.47560300E-05 -0.11121492E-04 -0.45535706E-05  0.65448612E-06  0.60750700E-06
 -0.41901105E-05 -0.43238195E-05 -0.38255906E-05 -0.29806127E-05 -0.10845263E-05
  0.94116123E-05 -0.75485339E-06 -0.87531185E-06  0.12080778E-04 -0.10142851E-04
  0.23091783E-05 -0.85465158E-05 -0.18850782E-05  0.56807457E-05  0.38499615E-05
  0.90872931E-06 -0.26996594E-05  0.58859328E-05  0.27283333E-06 -0.33448246E-05
  0.13212030E-04 -0.25202536E-05 -0.30614652E-06  0.37953109E-05 -0.45597955E-06
  0.17679999E-05 -0.12962889E-04  0.16831507E-05  0.60096393E-05 -0.39975966E-06
  0.28692881E-05 -0.27940616E-05 -0.21394771E-05 -0.19536570E-05  0.34134073E-07
 -0.24686865E-05  0.13717580E-05 -0.43023551E-05  0.81164338E-05 -0.45056568E-05
  0.12455701E-05 -0.51032296E-05 -0.27293879E-05  0.30787953E-05 -0.27026724E-05
 -0.49627753E-05  0.46771999E-06  0.96924550E-05 -0.59763121E-05 -0.22232852E-06
 -0.17013416E-06  0.47769392E-06  0.12344842E-05  0.30719555E-05 -0.25018776E-05
  0.30959249E-05 -0.14406332E-04 -0.32116120E-06  0.49068989E-05 -0.35445956E-05
  0.22092798E-05  0.49472631E-05  0.62093530E-05  0.19439578E-05 -0.15762242E-05
 -0.66068541E-05  0.22527340E-05  0.13720112E-05  0.40088932E-05  0.44778942E-05
  0.20648189E-06 -0.66682681E-05  0.10324384E-05 -0.67142815E-07  0.39984189E-05
 -0.12954970E-05  0.53248437E-06  0.14361485E-05 -0.40497961E-05  0.97393253E-06

 -0.48741287E-07 -0.98067961E-05  0.34655889E-07  0.78057822E-09 -0.30740167E-07
 -0.19826070E-07  0.33726649E-07  0.27694164E-07  0.26600589E-07  0.14596895E-07
 -0.96434831E-05 -0.27428585E-07 -0.11057134E-07  0.19186786E-06 -0.46607890E-07
  0.41378885E-07 -0.27816065E-07  0.28099926E-08  0.84720272E-07 -0.97708349E-05
 -0.10904379E-06  0.11715966E-07 -0.20955086E-06  0.54836795E-07 -0.62559367E-07
 -0.31097903E-07 -0.52376271E-08 -0.98455132E-07 -0.97774640E-05 -0.63432539E-07
 -0.18065006E-07  0.27657113E-07 -0.16504790E-07 -0.34504318E-07 -0.19165498E-07
  0.12888974E-07 -0.49312770E-07 -0.98695327E-05 -0.53748572E-07  0.96007112E-08
  0.23070481E-07  0.27373789E-07  0.64558804E-09 -0.19801886E-08 -0.61194819E-07
  0.90405603E-07 -0.10019104E-04 -0.67391860E-07 -0.32392431E-07  0.83099328E-07
 -0.11366980E-07  0.18506257E-07  0.17650120E-07  0.31214361E-08 -0.35240542E-07
 -0.96954396E-05  0.41646168E-07 -0.32192069E-07  0.80099172E-08  0.12179383E-07
 -0.19314656E-07  0.14302713E-07 -0.27477526E-07 -0.55036130E-07 -0.96375895E-05
 -0.87009711E-07  0.55800872E-07  0.18093122E-07 -0.80501053E-08  0.15783536E-07
 -0.88974312E-08  0.19464629E-07  0.36709896E-07 -0.96184027E-05  0.15268705E-06
 -0.23880210E-07  0.10911656E-06 -0.34214614E-07  0.62460273E-08  0.19613540E-07
 -0.11550834E-07  0.16463297E-07 -0.98296407E-05  0.25058015E-07 -0.12027560E-07
 -0.49837413E-07  0.41496568E-07 -0.62469587E-07  0.18711225E-08 -0.25817010E-07
  0.12400977E-06 -0.97712394E-05  0.41488299E-07  0.95254932E-09 -0.77107595E-07
 -0.36756414E-08  0.80628262E-08 -0.40692245E-08 -0.28196421E-07 -0.14024296E-06
 -0.98317954E-05 -0.61311022E-07  0.23705641E-07 -0.38477889E-08 -0.11464879E-07
  0.25703705E-07  0.26633084E-08  0.55547769E-07 -0.10097434E-06 -0.96338374E-05
 -0.10937522E-06 -0.35093601E-07  0.37885897E-07 -0.67448542E-09  0.56462660E-08
  0.10091896E-07  0.67106509E-08 -0.18797344E-07 -0.97968386E-05 -0.32931594E-07
 -0.60201412E-08 -0.81780800E-07  0.16708892E-07 -0.78863637E-08  0.13275746E-07
 -0.28086067E-07 -0.16455032E-07 -0.95583122E-05  0.10275314E-07  0.28149217E-07
  0.33713549E-07 -0.25816053E-07 -0.29329650E-07  0.37343302E-08  0.55279350E-07
  0.22554246E-04  0.24787515E-03 -0.28743689E-04 -0.35200444E-05 -0.96724723E-06
  0.77916999E-07 -0.68311967E-05 -0.10730752E-05 -0.43125516E-05 -0.70040328E-05
  0.59374301E-06  0.14977314E-05 -0.13544206E-05 -0.11449692E-04  0.64705323E-05
  0.13656263E-05  0.75369802E-05 -0.36679352E-06 -0.63107769E-05 -0.13631929E-04
 -0.54921995E-05 -0.93908202E-05 -0.10304300E-04  0.57025793E-05  0.10847217E-04
 -0.22594924E-05  0.49450224E-05  0.48535435E-06 -0.24972411E-04  0.39071155E-05
 -0.49895663E-05  0.90595482E-05  0.88220216E-06 -0.23062344E-05 -0.29415279E-05
  0.21272617E-05 -0.14708419E-05 -0.17927023E-04  0.77866184E-05  0.19162041E-06
 -0.28928310E-05  0.83401561E-06  0.99161372E-05  0.55728470E-05  0.79465524E-06
 -0.55878849E-05 -0.37417495E-05 -0.24541847E-05  0.25706332E-05 -0.77457107E-05
  0.13665172E-05 -0.33337103E-06 -0.20632094E-05  0.31642488E-05 -0.13337186E-04
 -0.16151088E-04 -0.15919059E-04  0.25843830E-05  0.57506937E-05 -0.76292436E-05
 -0.69281388E-05  0.47890816E-06 -0.30989955E-05 -0.77136934E-05 -0.70707314E-07
  0.17392032E-05  0.79696136E-05 -0.19190112E-05  0.34868902E-05 -0.56975574E-05
  0.86105569E-06  0.17244085E-05  0.49203305E-05 -0.10551096E-04  0.90560056E-05
 -0.36498419E-05 -0.17368396E-05 -0.26308835E-05 -0.57631092E-05  0.33213867E-05
 -0.22491745E-05  0.63016837E-05 -0.15162576E-04  0.10563496E-04  0.19785471E-05
  0.56577335E-05 -0.47051893E-05 -0.15171495E-05 -0.73979340E-05  0.39578623E-05

 -0.36265610E-07  0.16703834E-05  0.69627572E-07  0.19446579E-07 -0.10693633E-07
  0.19947172E-07  0.13592086E-07 -0.10826907E-07 -0.72105470E-08 -0.70669486E-07
  0.15675802E-05 -0.35591185E-07 -0.13755503E-07 -0.66054626E-07  0.34646221E-07
 -0.24772409E-07 -0.41242898E-07  0.11528837E-07 -0.13977146E-06  0.15673524E-05
  0.31355748E-07 -0.27204869E-07  0.43604890E-07 -0.72613687E-07  0.22384160E-07
  0.40664204E-07  0.19664983E-07  0.14853561E-07  0.15767508E-05 -0.15228496E-06
  0.22787231E-07 -0.28889277E-07 -0.29607435E-07 -0.27954350E-09 -0.98018354E-08
  0.29925760E-07 -0.43941817E-07  0.16138111E-05  0.44326434E-07 -0.13210620E-07
 -0.16543415E-08  0.34954654E-07  0.34852507E-08  0.17405915E-07  0.15684778E-07
 -0.33271617E-07  0.15562729E-05  0.18937514E-06  0.16377236E-07 -0.38477437E-07
 -0.62545402E-07 -0.26909636E-08 -0.17491247E-07  0.38281420E-07  0.62341658E-07
  0.16506870E-05 -0.96427982E-07 -0.12356620E-07  0.76467261E-08 -0.45435086E-07
  0.18251229E-07 -0.17550408E-07 -0.64061905E-08 -0.27454523E-07  0.15549691E-05
  0.55209618E-07 -0.48799744E-07  0.20202062E-07 -0.32394510E-08  0.17315803E-07
 -0.74900690E-08  0.17287031E-07  0.59868110E-07  0.16232470E-05 -0.14681095E-07
  0.66027561E-08 -0.20117576E-07  0.14174215E-07  0.36686501E-07  0.22921951E-08
  0.20592201E-08 -0.44591486E-07  0.15673689E-05  0.41912939E-07 -0.49482770E-08
 -0.24496904E-07 -0.24481269E-07 -0.97401955E-08 -0.12952324E-07  0.33541428E-08
  0.32770391E-07  0.15878784E-05  0.70624433E-07 -0.41583671E-08 -0.18756837E-07
  0.22977532E-07  0.14122587E-07  0.18563242E-07 -0.29308593E-07 -0.76463378E-07
  0.15927137E-05 -0.96944142E-07 -0.11522540E-07  0.32471899E-07  0.21472475E-07
 -0.19350044E-07  0.46169060E-07  0.13213581E-07 -0.41451061E-07  0.16108412E-05
  0.13664750E-06  0.34238283E-08 -0.25719987E-07  0.17205153E-07  0.14804156E-07
  0.18845989E-07  0.20416435E-07  0.39317326E-07  0.15777443E-05 -0.15635078E-06
 -0.10431450E-07 -0.18108721E-07  0.17224786E-07  0.21553983E-07 -0.19365016E-07
 -0.19595258E-07  0.10752613E-06  0.16974757E-05 -0.16432138E-06 -0.33041889E-07
  0.22978069E-07  0.79354737E-08 -0.17053848E-07  0.10974968E-07 -0.14377830E-07
 -0.10797113E-05 -0.28743689E-04  0.15831043E-03 -0.25037932E-05  0.86098810E-05
 -0.61967713E-05  0.44354420E-05 -0.50052980E-05 -0.94750962E-05 -0.61632955E-05
  0.31538992E-05  0.27274085E-06  0.50008445E-05 -0.10529544E-05 -0.77417461E-05
 -0.29662393E-05 -0.54477830E-05  0.27474920E-05  0.32002558E-05  0.30065312E-05
 -0.47569426E-05  0.28379031E-05  0.45653346E-05  0.34721453E-07 -0.35244641E-05
  0.70389152E-05 -0.39096734E-06 -0.34999816E-05  0.10860070E-05 -0.12840306E-05
  0.43268225E-05 -0.57688466E-06 -0.84444016E-05  0.28157536E-06  0.59932851E-05
  0.43752030E-05  0.68166986E-05 -0.22457601E-05 -0.27417278E-05  0.67202792E-07
  0.38654347E-05 -0.68982630E-05 -0.63751020E-06 -0.21870853E-05 -0.64279555E-05
 -0.63688045E-05 -0.10079594E-04  0.76557883E-05  0.13596736E-05  0.28649605E-06
 -0.60169939E-05  0.48054272E-05  0.18967268E-05 -0.12672577E-05  0.73349122E-06
  0.11862503E-05 -0.71111849E-05  0.31448734E-06 -0.88055498E-05  0.85488169E-05
  0.30513006E-05  0.41473787E-06  0.68902344E-05  0.96895630E-06 -0.21245032E-05
 -0.92350838E-06 -0.24269175E-05  0.31893163E-06  0.67409526E-06  0.54034998E-05
  0.25402800E-05 -0.74644562E-05 -0.24132411E-05  0.77399572E-05  0.12949218E-04
  0.51988102E-06 -0.96367234E-06  0.71697598E-05 -0.54448242E-06  0.22182172E-05
 -0.22075658E-05 -0.40986564E-06  0.30058255E-05 -0.74743484E-05 -0.87881153E-05
 -0.56799522E-06  0.11392382E-04  0.11241379E-05  0.17777874E-05  0.40037142E-06

  0.17160183E-06 -0.87484074E-07 -0.87888903E-07 -0.44223881E-07  0.14422434E-08
 -0.79370284E-08 -0.28921644E-08  0.53893553E-07 -0.38003762E-08  0.13157855E-06
 -0.77900093E-07  0.89286875E-07  0.97507389E-07 -0.70843821E-07  0.15417560E-07
  0.52000414E-07  0.13014555E-07 -0.90293671E-08 -0.27504015E-06 -0.68449596E-07
 -0.12399455E-06 -0.14274773E-08 -0.47380198E-07  0.18556344E-07 -0.20341876E-07
 -0.16885582E-07  0.29807994E-07  0.56658773E-07 -0.62555474E-07  0.54307010E-07
 -0.52907151E-07  0.52490225E-07 -0.11147316E-07 -0.11793777E-07  0.19358503E-07
 -0.21550708E-08 -0.88308057E-07 -0.65872190E-08 -0.20584977E-07 -0.12478772E-06
  0.14770689E-07  0.11084823E-07  0.40265476E-07 -0.23298253E-07  0.13088675E-07
  0.16035764E-06 -0.13897163E-06  0.17245150E-07 -0.56780849E-07 -0.43068034E-08
  0.58642349E-08  0.25547719E-07  0.61855403E-08  0.50331065E-08 -0.11963593E-06
 -0.57460648E-07 -0.47221249E-07  0.49265445E-07 -0.46525186E-10 -0.32863404E-07
  0.18799821E-07 -0.18719141E-08 -0.79335669E-08 -0.23766620E-07  0.20296481E-07
 -0.89111106E-08 -0.49678257E-07 -0.71700308E-09 -0.40135185E-08 -0.80952143E-08
  0.28057372E-08 -0.18373473E-07  0.14159533E-07 -0.13166945E-07 -0.61154184E-07
 -0.10544948E-07 -0.21905040E-08 -0.76984199E-08 -0.30268872E-07 -0.28243366E-07
  0.88799779E-08 -0.16663424E-06  0.19555140E-07 -0.20859020E-08  0.76056812E-07
  0.79535954E-08 -0.46812320E-07 -0.44427630E-07 -0.16655686E-07  0.91705578E-08
  0.27677287E-07  0.45353118E-07  0.57930989E-07  0.55360312E-07 -0.51888022E-08
 -0.52618148E-08 -0.64074792E-07 -0.17076345E-07 -0.58572611E-09 -0.13344535E-06
 -0.37408746E-09  0.78459486E-07  0.14837623E-07 -0.11333621E-07 -0.23781363E-07
  0.51140207E-07  0.13223336E-07  0.45316829E-08 -0.19417635E-07 -0.11969622E-06
 -0.16732127E-07  0.55644428E-07  0.19337093E-07 -0.21558243E-07 -0.12422368E-07
 -0.31020201E-08 -0.63175456E-08 -0.18289541E-07 -0.12177265E-06  0.38625188E-08
  0.38956561E-08 -0.22606495E-08 -0.19845106E-07  0.10680105E-07  0.21114712E-07
 -0.14300843E-07 -0.10459485E-06 -0.16971630E-07 -0.17554004E-07 -0.49603025E-08
 -0.35983806E-07  0.36688420E-07 -0.39790425E-09 -0.15090667E-07  0.66462897E-08
 -0.89717787E-05 -0.35200444E-05 -0.25037932E-05  0.17544792E-03 -0.43118588E-04
 -0.44626709E-04  0.15003973E-04 -0.10658912E-04  0.67898344E-05  0.89134654E-05
 -0.70859104E-05 -0.34596658E-05 -0.15181852E-04  0.52622845E-05  0.44716535E-05
 -0.45248560E-06  0.83824141E-06 -0.27077635E-05 -0.81306561E-05  0.46730386E-05
  0.17325783E-05  0.35298683E-05  0.26629123E-05  0.10957921E-05 -0.35682710E-05
  0.15867597E-05 -0.21982224E-05  0.38959526E-06 -0.17188668E-05  0.56587209E-05
  0.38204307E-05  0.22732418E-05 -0.20300015E-05  0.26101846E-05  0.36587248E-06
  0.66178076E-06  0.10402883E-04 -0.14769107E-05 -0.47990738E-05 -0.14601067E-04
  0.45032705E-05  0.67603767E-06  0.13259857E-05 -0.58219374E-05 -0.40804961E-06
  0.18753748E-05  0.43301351E-05 -0.64797446E-07 -0.19912697E-04  0.61292640E-05
  0.27295670E-05  0.19054249E-05  0.17637600E-05  0.25211643E-05  0.17279394E-05
  0.22464599E-05 -0.15009547E-05 -0.12081819E-04  0.31395726E-05  0.21222406E-05
 -0.76608986E-06 -0.51959907E-05 -0.29428840E-05  0.44923744E-05 -0.20118806E-06
 -0.15425317E-05  0.87480120E-05 -0.53459312E-06 -0.21583137E-05 -0.20569680E-05
 -0.54806865E-05 -0.60393277E-06 -0.87671330E-05  0.51546364E-05  0.47574117E-05
 -0.83589793E-05  0.14748141E-05  0.61726897E-06  0.27091525E-05 -0.14051322E-05
  0.25710886E-05  0.10557204E-05 -0.17151642E-05  0.16489762E-05 -0.14740221E-04
  0.58680940E-05 -0.17377612E-05 -0.40726502E-06 -0.53283230E-05 -0.90352363E-06

  0.44420676E-07  0.18886096E-05  0.11955072E-06 -0.77786707E-08  0.26251438E-07
 -0.27136235E-07 -0.39451301E-08 -0.28898717E-07 -0.28621616E-08 -0.25075018E-06
  0.16877108E-05  0.23133586E-07 -0.88400124E-07 -0.97906837E-07  0.19407189E-07
 -0.44564027E-07  0.37153329E-07 -0.86795825E-08  0.28550407E-06  0.20830515E-05
 -0.11704416E-06 -0.46297969E-07 -0.39475104E-08 -0.97619283E-08 -0.17811857E-07
  0.36520571E-08  0.29609737E-07  0.23508866E-07  0.20002546E-05 -0.19743029E-07
  0.29953122E-07 -0.19901990E-07 -0.42942895E-07 -0.44544008E-08 -0.14840259E-07
 -0.13334066E-07 -0.24385393E-07  0.21718627E-05 -0.59528653E-07  0.22761863E-08
 -0.90370706E-07 -0.22715705E-07 -0.70184377E-08 -0.93650355E-08  0.64794531E-09
  0.35858372E-08  0.21357264E-05 -0.65672566E-07 -0.46069084E-07  0.42552146E-07
 -0.11046688E-07  0.25811165E-07  0.69690893E-08 -0.45557462E-09  0.45018464E-07
  0.19804327E-05  0.78773185E-07 -0.14863863E-07  0.12847371E-07 -0.17757357E-07
 -0.60172003E-08  0.70394739E-08 -0.10386732E-07  0.81000630E-07  0.16381428E-05
  0.62143142E-07 -0.10793633E-07  0.16632707E-07 -0.40898518E-07 -0.68369804E-08
  0.14244410E-07  0.18832340E-08 -0.40510770E-07  0.16497505E-05  0.90001435E-07
  0.83978125E-08 -0.49095187E-08 -0.19052350E-07  0.14579553E-09 -0.11273105E-07
 -0.11039570E-07 -0.30296086E-08  0.17220661E-05  0.72911348E-07  0.71895786E-08
 -0.10348033E-06 -0.15611237E-07 -0.29065054E-07 -0.10870043E-07 -0.53466527E-07
  0.25110323E-07  0.16056980E-05  0.24190777E-07 -0.66187655E-07  0.98159731E-08
 -0.34036234E-07  0.51075755E-08  0.17471779E-07 -0.48213622E-07 -0.13044644E-06
  0.20614003E-05  0.90433238E-07  0.15392941E-07 -0.82491552E-07 -0.10941886E-07
 -0.28017888E-07  0.34946017E-07 -0.93874863E-08  0.62562903E-07  0.19697272E-05
  0.86241109E-07  0.21128671E-07 -0.12309708E-06 -0.13658969E-07  0.66200714E-08
 -0.11497628E-07  0.31933107E-07 -0.64370656E-07  0.18753107E-05 -0.80579637E-07
 -0.19983809E-07  0.57995936E-07 -0.20417267E-08  0.19454438E-07  0.19055661E-08
  0.70484019E-07  0.45862946E-08  0.20916932E-05 -0.11658307E-08 -0.38467693E-07
 -0.14338513E-07 -0.49487245E-08  0.20016144E-07  0.47170547E-08  0.14933740E-08
  0.68170592E-05 -0.96724723E-06  0.86098810E-05 -0.43118588E-04  0.23921718E-03
 -0.47962591E-04  0.31314950E-04 -0.13003170E-04 -0.50849933E-04  0.62259788E-06
  0.20761921E-05 -0.93531364E-06  0.22412005E-05 -0.23810215E-04  0.13575987E-05
  0.12612312E-04 -0.45867995E-05  0.89829645E-05  0.35145563E-05 -0.20545657E-05
 -0.56159318E-05  0.46784638E-06 -0.31937424E-05  0.14686809E-05  0.27178177E-05
  0.11724115E-06  0.75135858E-05  0.21116952E-05 -0.24515195E-05 -0.15289410E-05
  0.28039190E-05  0.58581171E-05 -0.55569213E-05  0.48573568E-05 -0.18496239E-06
 -0.14750813E-05  0.68161587E-06  0.41832968E-05  0.66322724E-05  0.45715145E-05
 -0.46644919E-05 -0.15790713E-05 -0.42712674E-05  0.71177155E-05 -0.17948141E-05
 -0.21370680E-05 -0.18630330E-04 -0.10071991E-05  0.64888407E-05 -0.25459964E-04
  0.30849982E-05  0.53322934E-05 -0.19540804E-05 -0.78885118E-06 -0.30307978E-06
  0.91803113E-05  0.38727499E-07  0.63975992E-05 -0.40163223E-05  0.24455795E-05
 -0.37037017E-05  0.80042442E-06  0.24893891E-05 -0.77645394E-06 -0.18429509E-04
  0.14715361E-05 -0.28882216E-05  0.37025520E-05 -0.31260227E-05 -0.67455856E-05
  0.79846326E-06  0.55748386E-06 -0.21944498E-05 -0.29336222E-05 -0.15734001E-05
  0.18778960E-05 -0.59356537E-06  0.14612906E-05 -0.35621209E-05  0.16756116E-05
 -0.34613921E-05  0.38948045E-05  0.14655567E-05  0.15651546E-05  0.37547889E-05
 -0.52981253E-05  0.35482820E-06 -0.29321240E-05  0.15383948E-05 -0.20912855E-05

 -0.62478327E-07 -0.94432304E-07 -0.60502994E-07  0.13904900E-07 -0.27978395E-07
  0.40875336E-08  0.14842332E-07  0.26886733E-07 -0.30839824E-07  0.19077159E-07
  0.62710030E-08 -0.14303915E-06  0.39742858E-07  0.27169105E-07 -0.42224083E-07
 -0.83488298E-08 -0.87649881E-07  0.49152626E-08 -0.75073065E-07 -0.18183194E-06
  0.28031092E-06  0.14136991E-07 -0.10810626E-07 -0.48951041E-08  0.13077079E-07
 -0.62854241E-08 -0.50260713E-08 -0.42184114E-07 -0.52844487E-07 -0.37276279E-06
 -0.28172790E-07 -0.16169228E-07  0.22860075E-07  0.16317115E-07 -0.16571515E-07
  0.27653322E-08  0.20084268E-07 -0.11083088E-06  0.11282143E-06  0.84565086E-08
 -0.15207919E-07  0.67866292E-07  0.32743152E-08 -0.22158244E-08 -0.43311183E-07
 -0.55969483E-07 -0.12810440E-06  0.13417399E-06  0.30200793E-07  0.16797226E-07
 -0.16333150E-07 -0.41056183E-07  0.49660892E-08 -0.52857063E-08  0.23279727E-07
 -0.47761267E-07  0.11187425E-07 -0.44440340E-07  0.93898351E-08  0.55089144E-07
  0.16499621E-08 -0.15377403E-07 -0.78745499E-09 -0.81935681E-07 -0.71439802E-07
 -0.14963637E-06 -0.15396337E-08 -0.16897568E-07  0.95007152E-07 -0.51078516E-08
 -0.14601233E-07  0.21060852E-07  0.55086745E-07 -0.13853835E-06 -0.69711729E-07
 -0.13329108E-07 -0.28126567E-07 -0.36373305E-08  0.44983797E-08 -0.14399224E-07
  0.24051346E-07  0.39937232E-07 -0.32964022E-07  0.29793586E-07 -0.42029629E-07
  0.10935160E-07  0.53639498E-07  0.15850362E-07  0.35138725E-07  0.21159181E-07
 -0.64864969E-07 -0.14314075E-06  0.53690795E-07 -0.12376188E-07 -0.64691165E-08
  0.11033721E-07  0.15800283E-08 -0.18768298E-07  0.30199834E-07  0.36043794E-07
 -0.14971599E-06  0.58297843E-07 -0.67706765E-08  0.36065910E-07 -0.89541677E-07
 -0.51875603E-08  0.95905078E-08  0.21546915E-07 -0.43660724E-07 -0.24646434E-07
 -0.17216493E-06  0.10174376E-08  0.86112971E-08 -0.38774585E-07  0.45374707E-08
  0.38815211E-07  0.26610101E-07  0.10461109E-07 -0.10092065E-06 -0.52143965E-07
 -0.35346629E-07 -0.22993486E-07  0.58819941E-07 -0.53345153E-08  0.24033599E-07
 -0.24777614E-07 -0.18780771E-07 -0.18412075E-06 -0.14293751E-07  0.43148440E-07
  0.14123393E-07 -0.12959117E-06 -0.14596400E-07  0.87547659E-08  0.22375596E-07
 -0.47560300E-05  0.77916999E-07 -0.61967713E-05 -0.44626709E-04 -0.47962591E-04
  0.17849681E-03 -0.25540325E-05 -0.62928224E-05 -0.18232208E-04  0.41294558E-05
  0.20908210E-06 -0.93251161E-07  0.68392712E-05  0.20535062E-05 -0.30607875E-05
 -0.41502780E-05  0.37627298E-05 -0.14776588E-05 -0.11423814E-05 -0.13296388E-05
 -0.41892436E-06  0.15573838E-05 -0.10403431E-06 -0.78453681E-05  0.25946039E-05
 -0.12557535E-07  0.12731475E-05 -0.40345674E-05  0.93581774E-06 -0.20309848E-06
 -0.13959174E-05 -0.66582711E-05  0.47781149E-05 -0.20821477E-05 -0.19897622E-06
 -0.27653346E-05 -0.40976760E-05  0.18303252E-05  0.48483675E-05  0.20608491E-05
 -0.47857055E-05  0.45844920E-05  0.37710781E-05 -0.57780858E-05  0.91267968E-06
  0.22871793E-05  0.26250957E-05 -0.50386335E-05  0.46920405E-05  0.46471274E-05
 -0.47306221E-05 -0.25605725E-05  0.65263719E-05 -0.95052729E-06 -0.12099241E-05
 -0.29502011E-05  0.10990308E-04  0.24631731E-05  0.24644065E-05 -0.91508068E-05
  0.55182843E-05 -0.13211205E-05  0.60736142E-05 -0.16833283E-05  0.99972865E-05
  0.20943505E-05  0.48877419E-06 -0.32588085E-05  0.12060034E-04  0.15200172E-05
 -0.13509609E-05  0.50447265E-05  0.49966228E-07 -0.11055198E-04 -0.12730548E-04
 -0.11512120E-05  0.26246165E-05  0.54310423E-05  0.40893834E-05 -0.42714797E-05
 -0.51842234E-05  0.17923418E-05  0.11145352E-05 -0.91115241E-05  0.68446447E-06
 -0.12491281E-06  0.75269548E-05  0.13509138E-06  0.15889973E-05  0.49166894E-06

  0.60430445E-07  0.16430297E-06  0.34708168E-07  0.41688959E-07 -0.12387156E-07
 -0.20718265E-07 -0.26596569E-07 -0.97505807E-08 -0.33170737E-09 -0.11551779E-06
 -0.19784016E-06  0.32141485E-07  0.15216815E-07 -0.77399334E-07  0.12204933E-08
 -0.51274900E-07  0.12700868E-07  0.21337494E-07  0.76124412E-07  0.59261120E-06
 -0.27328307E-08  0.56895347E-07 -0.74516452E-07 -0.10589920E-07 -0.11163561E-06
  0.72365988E-08  0.51723867E-07  0.13258459E-06  0.63328842E-07  0.50692370E-08
 -0.43762205E-08 -0.79993053E-08 -0.13382307E-07  0.30649690E-07  0.81165044E-08
 -0.16498246E-07  0.43971286E-07  0.15194177E-06  0.50376422E-07  0.18462646E-07
  0.95881277E-08 -0.10510288E-07  0.12192994E-07 -0.17715966E-07 -0.53961129E-09
  0.63844721E-07  0.19322981E-06  0.20102552E-07 -0.80758206E-07 -0.36861633E-07
 -0.56666497E-08  0.62823999E-07  0.66547137E-08  0.18726395E-07 -0.37203423E-07
  0.16700617E-06  0.52226453E-07  0.24199317E-08 -0.70572242E-08 -0.25373307E-07
  0.54536026E-07  0.83642889E-08  0.64903571E-08  0.14213618E-06  0.14378130E-06
  0.92110724E-07  0.60794134E-08  0.36116530E-07 -0.20657083E-07 -0.57920375E-07
  0.14258854E-07  0.20064616E-07 -0.75462696E-07  0.93935125E-07  0.18851190E-07
 -0.81912476E-07 -0.26436406E-07  0.10124938E-07 -0.69482882E-07 -0.30064366E-07
 -0.12524796E-07  0.73525558E-07  0.13212782E-06  0.26782075E-08 -0.48309440E-07
 -0.14643589E-07  0.20059562E-07  0.11190581E-09  0.91471423E-08  0.14602546E-07
 -0.11667031E-06  0.16562792E-06  0.29051784E-07 -0.97596113E-07 -0.37965573E-07
  0.94401168E-08  0.42254224E-07 -0.75486660E-08 -0.28898372E-08  0.63815571E-07
  0.25029861E-06 -0.70764354E-08 -0.57497000E-08 -0.16525807E-07 -0.29191133E-07
 -0.12626823E-07 -0.51308518E-08  0.28322829E-08  0.13594168E-07  0.16241280E-06
  0.34850432E-07  0.11725536E-07 -0.56717361E-07 -0.19101488E-07 -0.19646994E-07
  0.13230529E-07  0.24275653E-08 -0.12419054E-06  0.16838361E-06  0.72131025E-07
  0.87524025E-08  0.67071965E-08 -0.82413179E-08  0.61681963E-08  0.11557829E-07
  0.41950784E-08  0.22760899E-07  0.16223257E-06 -0.45937151E-07  0.25275555E-07
  0.21428109E-07 -0.41593943E-07  0.10899695E-07 -0.60034139E-08 -0.16514627E-07
 -0.11121492E-04 -0.68311967E-05  0.44354420E-05  0.15003973E-04  0.31314950E-04
 -0.25540325E-05  0.14518353E-03 -0.21136063E-04 -0.25727209E-04  0.91217602E-05
 -0.26728817E-05 -0.14285380E-05  0.83235265E-06 -0.36411192E-05  0.21792735E-05
  0.40547829E-05 -0.37763287E-06  0.63582800E-06 -0.27078027E-06  0.71015741E-05
  0.91579033E-07  0.10910506E-04  0.89023342E-06 -0.34372691E-05 -0.66743477E-07
  0.38812636E-05 -0.12445061E-05 -0.26196494E-05 -0.15120098E-05  0.44493242E-06
 -0.49699952E-05 -0.18404739E-05 -0.18395580E-05 -0.28803739E-05  0.17060956E-05
  0.29111022E-05  0.15383204E-07  0.37243693E-06 -0.13409525E-05  0.64954737E-05
  0.35556397E-06 -0.11494423E-05 -0.37290794E-05 -0.43973454E-05  0.49677565E-05
 -0.10083951E-06 -0.31078550E-05  0.88539097E-08 -0.52971206E-06 -0.48561126E-05
 -0.91392663E-06  0.55147264E-05  0.32212708E-05 -0.13974408E-05  0.26769025E-05
 -0.20667996E-05 -0.35539805E-05  0.51479930E-05 -0.65716385E-06  0.21546878E-06
  0.12769571E-05  0.14107654E-05  0.16178552E-05  0.25046080E-06  0.20931924E-05
  0.10378393E-05 -0.22837136E-05 -0.26181988E-06 -0.10390025E-06 -0.24419445E-05
 -0.69281302E-07 -0.34097654E-05  0.80130557E-06  0.56597140E-05  0.20070667E-05
 -0.49231497E-05 -0.88277369E-05  0.33767328E-05  0.50334202E-05  0.19005680E-05
 -0.20269768E-06  0.26027090E-05 -0.14495548E-05 -0.16037505E-05 -0.11776264E-04
  0.40276457E-05 -0.15172059E-06  0.14704016E-05 -0.20094758E-05  0.35779649E-06

 -0.13721974E-06 -0.18984589E-07  0.32207552E-07  0.38340960E-07 -0.37832077E-08
  0.21580948E-07 -0.18960592E-07 -0.19904724E-07  0.34068525E-08  0.14327194E-06
  0.73482459E-07  0.58378393E-07 -0.17710659E-07  0.37726798E-07 -0.50741930E-07
 -0.29072147E-08  0.57750432E-07 -0.76802501E-08 -0.11454540E-06 -0.17892078E-06
 -0.74637899E-07 -0.42121569E-07  0.22260696E-07 -0.64774894E-08  0.59753287E-07
  0.20180113E-07  0.63958483E-08 -0.15203266E-06 -0.53451874E-07  0.12804599E-07
  0.13508670E-07 -0.13342083E-07 -0.59264995E-08  0.96989270E-08 -0.40623019E-08
  0.13663226E-07 -0.21047883E-09 -0.48900164E-08 -0.19585875E-08 -0.79247944E-08
 -0.96244721E-08 -0.20162689E-07 -0.43179443E-09 -0.30725739E-07  0.46762588E-08
  0.60706512E-07 -0.69310370E-07  0.14062561E-08  0.27278785E-07  0.74858377E-08
  0.77091393E-08 -0.16982225E-07  0.15091223E-07 -0.12269890E-07  0.17592646E-07
 -0.13111304E-07 -0.36956784E-07 -0.18758553E-07  0.96837094E-08 -0.13812864E-07
 -0.17660696E-07  0.12688491E-07  0.21489131E-07 -0.15367271E-06  0.83330845E-08
 -0.93758798E-07 -0.39083111E-08 -0.55146838E-08 -0.14315481E-07 -0.91811404E-08
  0.25099815E-07  0.39053413E-08 -0.98637051E-07  0.11638786E-07  0.89122700E-07
 -0.27217044E-07 -0.62912419E-08 -0.13925801E-07  0.24676460E-07 -0.21857077E-07
 -0.13702713E-08  0.47023810E-07 -0.36173862E-07 -0.63120058E-07 -0.20648041E-07
  0.13034527E-07  0.26127594E-07  0.10392506E-07  0.11220603E-07 -0.62074486E-09
  0.93678420E-07 -0.41968103E-07 -0.50982472E-07  0.12041885E-08 -0.14059455E-08
 -0.85989274E-08 -0.42988338E-08  0.97635332E-08 -0.10626191E-07  0.14567688E-06
  0.55788076E-07 -0.38553502E-07 -0.52765231E-08  0.21778675E-07  0.30547156E-07
  0.30722629E-08 -0.46312146E-07  0.43771164E-08 -0.53939193E-07 -0.47214891E-07
  0.93007080E-10  0.82485239E-08 -0.10358525E-07  0.29418348E-07  0.24149229E-07
  0.13374132E-07  0.13261242E-07 -0.62505985E-07  0.46357938E-07  0.87526487E-08
  0.37911265E-07 -0.23727718E-07  0.89067547E-08 -0.21506326E-07 -0.13369734E-07
 -0.20957978E-07 -0.38974420E-07  0.15351152E-07 -0.65889412E-07 -0.28365501E-07
  0.83202441E-08  0.12757424E-07  0.28570851E-07  0.24519490E-08 -0.78925936E-08
 -0.45535706E-05 -0.10730752E-05 -0.50052980E-05 -0.10658912E-04 -0.13003170E-04
 -0.62928224E-05 -0.21136063E-04  0.11057144E-03  0.12766727E-04 -0.74606679E-05
  0.41408160E-05  0.60044553E-05  0.30388500E-05  0.45597932E-09  0.35648314E-05
 -0.31015894E-05  0.31525682E-05 -0.75929161E-06  0.35884975E-05 -0.39980750E-07
 -0.37339677E-05 -0.14782212E-06 -0.75984433E-06  0.25087808E-05 -0.16929240E-05
 -0.10322082E-06 -0.14886135E-05  0.55139239E-05  0.23767076E-05 -0.63533912E-05
  0.18512956E-05 -0.16390293E-05  0.15625450E-06 -0.10545526E-05  0.13092109E-05
  0.14691891E-05 -0.14778823E-05  0.15930032E-05  0.13881105E-05 -0.27165068E-05
  0.30885566E-05 -0.51429036E-05 -0.43425501E-05 -0.31073372E-05  0.23117540E-05
 -0.56330180E-05  0.11252504E-05  0.28145488E-05  0.13001354E-06 -0.19837202E-06
  0.48431528E-05  0.49598174E-05 -0.42397229E-05 -0.41270331E-06  0.45566901E-05
 -0.17999266E-05  0.83385986E-07 -0.54640807E-05  0.80287755E-06  0.28676045E-06
 -0.34684344E-07 -0.38213182E-05  0.56552394E-05 -0.33387726E-05 -0.20242664E-05
 -0.25880697E-05 -0.39956703E-05 -0.13900612E-05 -0.64707816E-06  0.33507865E-05
  0.90525455E-05 -0.11064186E-05 -0.25151024E-05 -0.53043551E-06 -0.90996916E-05
  0.17061689E-06 -0.11819016E-05 -0.40133808E-05 -0.16788658E-05  0.11552214E-05
  0.39717105E-05 -0.21118076E-05 -0.35150185E-05  0.43031313E-05 -0.40107458E-05
 -0.20937102E-06 -0.15654116E-05  0.62630088E-06  0.85632718E-08 -0.15822162E-05

  0.16144634E-07  0.16221317E-07 -0.12958799E-07 -0.93886794E-08  0.25729664E-07
 -0.12892816E-07 -0.60419963E-08  0.15893162E-07 -0.11332842E-07  0.11520542E-06
  0.17751424E-06  0.24909325E-07  0.16550145E-07  0.17666252E-07 -0.27953735E-08
  0.39805294E-07 -0.16354113E-07 -0.50729543E-08 -0.33638623E-07 -0.63798828E-07
  0.46015177E-07 -0.25136261E-07  0.58324272E-07  0.26542754E-08  0.48647482E-07
 -0.13713683E-08 -0.35709344E-07  0.29337470E-07 -0.81918995E-07  0.22737467E-06
  0.10630338E-07  0.10225970E-07 -0.22867710E-08 -0.11540478E-07  0.72059271E-08
  0.58367613E-07  0.44631112E-07  0.97327553E-08  0.12688468E-07  0.27599903E-07
 -0.11980995E-07 -0.65670245E-07  0.44730849E-08  0.12372545E-07  0.33849001E-07
  0.36365208E-07 -0.36831176E-07  0.10250923E-06  0.16416074E-08  0.29244994E-07
  0.19781194E-07 -0.29062315E-08 -0.16343288E-07  0.96286437E-10  0.45862726E-07
 -0.52450877E-07 -0.75784300E-07  0.40499466E-08  0.14318427E-08  0.17937163E-07
  0.18143364E-07 -0.15240747E-07  0.31287082E-07  0.32237611E-07  0.64358102E-07
  0.28449245E-07 -0.98742795E-10 -0.12216668E-07  0.20528320E-07  0.34240345E-07
  0.44731038E-08  0.16851302E-08  0.61258187E-07  0.89733646E-07 -0.10149637E-06
 -0.88524361E-08  0.15369085E-09 -0.17934169E-07 -0.13924684E-07 -0.70063908E-08
 -0.31853111E-07 -0.59300381E-08  0.11571406E-06 -0.33611341E-07 -0.61600588E-08
  0.50161535E-07  0.18584558E-07  0.21052987E-07  0.24858258E-07 -0.28850359E-07
  0.30083347E-07  0.11819420E-06 -0.80290307E-07  0.40663860E-07 -0.49524580E-07
 -0.19676821E-07  0.13976336E-07 -0.15851417E-07  0.15810933E-07  0.21313179E-07
 -0.73977030E-08 -0.52988418E-07 -0.20243806E-07  0.71328620E-08  0.53723779E-07
  0.91875097E-08 -0.27716807E-07 -0.26837559E-08  0.48163406E-07 -0.97272187E-07
  0.72926438E-07 -0.46821579E-08 -0.52935055E-08  0.48698744E-07 -0.35989771E-08
 -0.47376116E-08 -0.18082845E-07  0.79889007E-07  0.13690968E-06 -0.95844025E-07
  0.27367586E-07 -0.24424643E-07 -0.22618088E-07 -0.16371939E-07 -0.10028917E-08
 -0.18976649E-07 -0.19556480E-07  0.33440322E-07 -0.36047446E-07  0.14342887E-07
 -0.57003188E-07  0.29432307E-07 -0.21930732E-07 -0.17521454E-07 -0.84279832E-08
  0.65448612E-06 -0.43125516E-05 -0.94750962E-05  0.67898344E-05 -0.50849933E-04
 -0.18232208E-04 -0.25727209E-04  0.12766727E-04  0.13101158E-03 -0.18472705E-05
 -0.50939915E-06  0.25274597E-05 -0.60092232E-06  0.66402381E-05  0.20788417E-05
 -0.36420076E-05  0.40618458E-05 -0.61444701E-06 -0.56405397E-09 -0.10351961E-05
  0.70161054E-05  0.21226016E-05 -0.13445018E-05  0.14724729E-05 -0.31694118E-05
 -0.61996636E-06 -0.34958385E-05 -0.51175684E-06 -0.29025698E-05  0.21066398E-05
  0.16425083E-06  0.13530617E-05  0.18315303E-05  0.40457274E-05 -0.26035402E-05
 -0.17048036E-05 -0.19793842E-05  0.19192296E-05 -0.49408403E-05 -0.77377575E-05
  0.39627170E-07  0.46286150E-05  0.66755262E-05  0.24832604E-05 -0.45087812E-05
 -0.13375747E-05  0.10978021E-05  0.32362875E-06 -0.10059137E-07  0.62855622E-05
  0.84130093E-06 -0.14024375E-05 -0.25910882E-05  0.38033992E-05 -0.24851364E-05
 -0.48856119E-05 -0.30947099E-05 -0.48158622E-05  0.41892380E-05  0.43434608E-05
  0.15212699E-05  0.16082800E-05 -0.43303276E-05 -0.14872623E-05  0.66347307E-05
 -0.70448650E-05  0.16980062E-05 -0.13461266E-05 -0.14260343E-05 -0.15145136E-05
 -0.60712065E-06  0.24943244E-05  0.38991387E-06  0.63192959E-05 -0.50732198E-06
  0.29558241E-05 -0.20739677E-05 -0.97655695E-06  0.36171580E-06 -0.34579594E-05
  0.15972852E-05 -0.31290294E-05 -0.27478784E-05 -0.11232985E-05  0.23451900E-05
 -0.99222801E-06 -0.48216966E-05  0.19352973E-05 -0.49064906E-05 -0.15743243E-05

 -0.49683598E-07  0.15770260E-05 -0.23815561E-07  0.64422311E-07 -0.34819067E-07
 -0.16328231E-07 -0.36827591E-08  0.78306658E-09  0.99919505E-08  0.23450607E-07
  0.15979029E-05 -0.36684672E-07  0.23523334E-07 -0.24895266E-09 -0.81112254E-08
  0.20572464E-08 -0.48312263E-08  0.75959365E-08 -0.19148754E-06  0.16632111E-05
  0.33320220E-08 -0.84403420E-07 -0.22482686E-07  0.26895404E-07 -0.71985881E-08
  0.89681861E-08  0.86095672E-08  0.80639845E-07  0.16554298E-05  0.12250247E-06
 -0.57864265E-07  0.23900142E-07 -0.21247350E-08 -0.10764706E-07  0.21495083E-07
 -0.18782056E-07 -0.17386025E-07  0.16921590E-05 -0.86744031E-07  0.58117571E-07
 -0.25421550E-07 -0.22079196E-07 -0.10116970E-07  0.78078450E-09  0.26989393E-08
 -0.98216288E-07  0.16640787E-05 -0.24266991E-07 -0.29955047E-07  0.75014155E-08
  0.15254095E-07  0.19479802E-07 -0.12909052E-07  0.25677885E-08  0.44882679E-07
  0.16241753E-05  0.98306316E-08 -0.24578659E-08  0.30650075E-07  0.52692288E-08
  0.41420228E-09  0.16058642E-08 -0.46842491E-09 -0.31284782E-07  0.15824484E-05
 -0.17466200E-07 -0.59085044E-07  0.18019245E-07  0.89972495E-08  0.91205133E-09
  0.22730377E-07 -0.46068998E-08  0.17502132E-06  0.15324566E-05  0.49399409E-07
 -0.34678651E-07  0.23742516E-07  0.31588962E-08 -0.49933704E-08 -0.43872128E-07
 -0.87282062E-08 -0.14451233E-06  0.16846286E-05  0.47261223E-08  0.68128143E-07
 -0.27158198E-07 -0.90195657E-08 -0.13128758E-07  0.46164887E-08 -0.25148333E-07
 -0.12623079E-06  0.15994386E-05 -0.17830994E-07  0.52838975E-07 -0.18488099E-07
  0.51439692E-08  0.31302295E-08  0.25899589E-08 -0.17645259E-07  0.21483006E-06
  0.16212851E-05  0.55969913E-07  0.49256173E-07 -0.93957070E-08 -0.12073813E-07
  0.34503856E-07 -0.18612901E-07 -0.58887890E-08 -0.60679149E-08  0.15703178E-05
  0.49534815E-08 -0.22709269E-07 -0.84156549E-09 -0.10958662E-09 -0.18599995E-07
 -0.12012131E-07 -0.35479506E-08  0.86840622E-07  0.15777912E-05 -0.21618412E-07
  0.44543844E-07 -0.27572197E-10 -0.35308212E-08  0.28500431E-07 -0.13319808E-07
  0.40302402E-08  0.43700106E-07  0.15172091E-05  0.48716230E-07  0.14511436E-07
  0.64685629E-08 -0.18920177E-07 -0.13827073E-07  0.11442155E-07 -0.13147298E-08
  0.60750700E-06 -0.70040328E-05 -0.61632955E-05  0.89134654E-05  0.62259788E-06
  0.41294558E-05  0.91217602E-05 -0.74606679E-05 -0.18472705E-05  0.10350042E-03
 -0.20014438E-04  0.75446393E-05 -0.33953820E-05 -0.96415913E-06  0.14659050E-05
  0.50760306E-05  0.14215699E-05  0.10496486E-05  0.51241818E-06 -0.61603608E-05
  0.19366224E-05 -0.89538774E-05 -0.83238408E-06  0.12961642E-05  0.12483193E-04
  0.47391679E-06  0.12258919E-05 -0.29052903E-05 -0.63648939E-06  0.35995646E-05
 -0.31397134E-06  0.99654434E-06 -0.38882606E-05  0.41882544E-05 -0.27196143E-06
 -0.36034858E-08  0.11678327E-04 -0.86952028E-06  0.72991370E-06  0.56257977E-06
  0.16850392E-05  0.84499277E-07  0.34395202E-05 -0.20252395E-05  0.69529485E-06
  0.45980887E-05 -0.12961912E-05  0.94474412E-06  0.24031687E-05 -0.27650874E-05
  0.24944708E-06 -0.56978698E-05  0.10337252E-04  0.16831476E-05  0.23931020E-05
 -0.99964809E-06  0.60177538E-05  0.30629597E-06 -0.32735109E-07  0.15517187E-05
 -0.69856300E-05  0.23088824E-05 -0.36380763E-06  0.12240233E-04  0.80578219E-05
  0.37166165E-05 -0.13003078E-05 -0.12853778E-05  0.13770186E-06 -0.26678917E-05
 -0.45323540E-05  0.21705925E-05 -0.73331276E-05  0.32265853E-05 -0.27273266E-05
 -0.96966025E-05  0.33777502E-05  0.48726920E-05  0.73313027E-05 -0.80354618E-05
  0.66941431E-06 -0.94683905E-05  0.15367149E-05  0.39414782E-05 -0.99675745E-05
  0.16647224E-05  0.10734545E-05 -0.35670274E-05  0.57955390E-05 -0.21170980E-05

  0.69029278E-07 -0.18988449E-05  0.29510345E-07 -0.57300032E-07  0.82951246E-08
  0.51734625E-08  0.77997544E-08 -0.91856701E-08  0.13192006E-08 -0.50325330E-07
 -0.19012081E-05 -0.30836760E-07 -0.30796971E-07  0.10825030E-07 -0.15732312E-09
  0.14870997E-07  0.13558794E-07 -0.18043285E-07  0.78041838E-07 -0.20865663E-05
 -0.45773376E-07 -0.16968827E-07  0.59938087E-07 -0.19633655E-07  0.19286038E-07
 -0.16388777E-08 -0.36140908E-07  0.29063496E-07 -0.19839504E-05 -0.48299487E-07
  0.16724945E-07 -0.36939343E-07 -0.36050233E-08  0.16371511E-07  0.16699516E-07
  0.39158307E-07 -0.35953452E-07 -0.20029226E-05  0.52276932E-07 -0.11093791E-07
  0.21967471E-07 -0.15969371E-07  0.13410338E-07  0.55810424E-09 -0.55418092E-08
  0.99983427E-07 -0.20153669E-05  0.88276376E-07 -0.13509821E-08 -0.38411095E-07
 -0.54905977E-08 -0.17609761E-07  0.11334293E-07 -0.25512746E-07 -0.40876880E-07
 -0.20387904E-05  0.90579807E-07 -0.11624242E-07 -0.20432660E-07 -0.88880291E-08
  0.61428956E-08 -0.11621089E-07 -0.21192426E-07  0.22522413E-07 -0.21315938E-05
 -0.18325885E-07  0.47531632E-08 -0.54610723E-07 -0.12135622E-07 -0.72303270E-08
  0.96609577E-08  0.50082520E-08 -0.45899287E-07 -0.19485836E-05  0.22683778E-07
  0.15896343E-07 -0.68368541E-07  0.13385860E-08  0.34166090E-07 -0.41603829E-08
  0.75597729E-08 -0.27642986E-07 -0.21520065E-05 -0.10773883E-06 -0.24367902E-07
  0.48960480E-07 -0.27888464E-07 -0.42989344E-09 -0.38962410E-08  0.12955571E-07
 -0.37784109E-07 -0.22344274E-05 -0.82556287E-07 -0.37799903E-07 -0.25061493E-08
 -0.26076109E-08  0.26471692E-07 -0.93898568E-08  0.16471190E-07 -0.63697050E-07
 -0.19453233E-05 -0.41395749E-07 -0.25479795E-07 -0.35621548E-07 -0.46135771E-08
  0.50483296E-08  0.14246913E-07 -0.33406402E-07  0.12072484E-07 -0.21865077E-05
 -0.22963185E-07  0.10708206E-07  0.17948414E-07 -0.25879069E-07  0.23813374E-07
  0.14312585E-07  0.26062381E-07 -0.77329402E-07 -0.20601784E-05 -0.20473781E-07
 -0.16195584E-07 -0.17502468E-07 -0.29595330E-08  0.79028390E-08 -0.19967201E-07
 -0.27395793E-08 -0.20157305E-07 -0.21002693E-05  0.45395758E-07 -0.18229063E-07
  0.23006929E-07 -0.39288177E-08 -0.88727249E-08  0.17057718E-07 -0.73996038E-08
 -0.41901105E-05  0.59374301E-06  0.31538992E-05 -0.70859104E-05  0.20761921E-05
  0.20908210E-06 -0.26728817E-05  0.41408160E-05 -0.50939915E-06 -0.20014438E-04
  0.10297779E-03  0.41525208E-05 -0.78658080E-06 -0.86262848E-05 -0.36436351E-06
  0.41660590E-05 -0.21757520E-05 -0.13508225E-05  0.63081553E-05 -0.14251937E-04
  0.16588284E-05  0.15323843E-05 -0.40645932E-05  0.33561636E-05 -0.13526964E-05
  0.43935074E-05 -0.31965292E-05 -0.64581614E-05 -0.10573895E-04 -0.10449248E-05
 -0.53375833E-06 -0.18492463E-05 -0.45395901E-06  0.26342598E-05 -0.20159973E-05
  0.28435871E-05 -0.69248531E-05  0.80100746E-06 -0.30267678E-05  0.54702693E-05
 -0.14273729E-04  0.71112201E-06 -0.36028500E-05  0.62227641E-05 -0.29809914E-05
 -0.46952735E-05 -0.15203222E-04  0.59670266E-06 -0.42871896E-05  0.82710296E-05
 -0.16027780E-05 -0.17315372E-05 -0.13773981E-05  0.13036674E-05  0.34834190E-05
 -0.16526365E-05 -0.96475886E-06  0.70973430E-05 -0.11993417E-05 -0.21127035E-05
 -0.45383587E-05  0.26932681E-05  0.41337358E-05 -0.58372427E-05 -0.20454064E-04
 -0.89906979E-05 -0.11783163E-06 -0.68871992E-05 -0.11481947E-05 -0.38560291E-05
 -0.16663165E-05  0.33283225E-06  0.19949605E-05 -0.41989155E-05  0.56641421E-06
  0.38029094E-05  0.81027428E-06 -0.11024533E-05 -0.55820939E-05  0.48236251E-06
 -0.37742997E-05  0.17253974E-05 -0.73513339E-05 -0.24021548E-05 -0.24445790E-05
 -0.81950998E-05 -0.38119205E-06 -0.81102679E-06 -0.34357626E-05  0.65162360E-05

 -0.44561294E-07 -0.52433549E-06  0.48646487E-07  0.24028670E-08 -0.33355365E-07
  0.36879072E-07  0.12493896E-07 -0.98608667E-08  0.12082684E-07 -0.18713220E-07
 -0.55821839E-06  0.74542632E-07  0.24787907E-08  0.17952300E-08 -0.11789231E-08
 -0.21833843E-08 -0.66028329E-08 -0.34977055E-08 -0.21513077E-07 -0.63174450E-06
 -0.13144993E-07 -0.59940235E-08 -0.18746935E-07 -0.63718577E-08  0.70405503E-08
 -0.30486546E-08 -0.33010109E-09  0.10125195E-06 -0.49593472E-06  0.84803010E-07
 -0.91455745E-08  0.68314515E-08  0.21906563E-07 -0.18059885E-07 -0.21325628E-07
  0.28115927E-07 -0.43705895E-07 -0.52449697E-06 -0.19920623E-07 -0.44118453E-08
  0.17445642E-08 -0.10167211E-08 -0.34830164E-08 -0.14769931E-07 -0.54486800E-08
  0.36312775E-07 -0.56638729E-06  0.12586094E-06 -0.59831237E-08  0.54163788E-08
 -0.18543016E-07 -0.53717939E-09  0.60683184E-08  0.84592750E-08  0.29944842E-08
 -0.53397489E-06  0.82495819E-07 -0.17004365E-07  0.20813749E-07 -0.11083927E-07
 -0.14820546E-07  0.13878141E-07  0.29368034E-08 -0.27259859E-07 -0.48455282E-06
 -0.33307861E-07  0.20378203E-07 -0.90202860E-08 -0.13069164E-07  0.49240770E-09
 -0.14228609E-07  0.79768485E-08  0.54829899E-07 -0.51634041E-06  0.10034009E-06
 -0.39672157E-07  0.47180485E-08 -0.43281578E-07 -0.16596671E-07  0.55664931E-08
  0.58148818E-08  0.49973423E-08 -0.53939124E-06  0.54104965E-08  0.15079444E-07
 -0.21722928E-08 -0.16555212E-07 -0.14942986E-07  0.12836680E-07 -0.13875402E-07
 -0.22026087E-07 -0.62086913E-06  0.50123334E-07 -0.93546874E-08  0.14297746E-08
 -0.38014705E-08 -0.59494933E-08  0.18671549E-07  0.15445589E-07  0.13161222E-07
 -0.51011617E-06  0.74724537E-07 -0.77978760E-08 -0.71609465E-08  0.27633739E-07
  0.15788317E-08  0.39448527E-08  0.50313845E-07 -0.80323202E-08 -0.53094500E-06
  0.31614546E-07 -0.19873125E-07 -0.59292504E-08  0.37030963E-07 -0.21506362E-08
 -0.19303054E-08  0.24144360E-08 -0.20842481E-07 -0.51641206E-06 -0.11639065E-06
  0.68036506E-08 -0.33032862E-07 -0.10874046E-07  0.17874399E-07  0.50084158E-08
 -0.34216803E-07  0.64522072E-07 -0.60687983E-06 -0.69508612E-07  0.25071833E-08
  0.21703220E-07 -0.13223987E-08  0.76342089E-08  0.35951565E-09  0.71546210E-09
 -0.43238195E-05  0.14977314E-05  0.27274085E-06 -0.34596658E-05 -0.93531364E-06
 -0.93251161E-07 -0.14285380E-05  0.60044553E-05  0.25274597E-05  0.75446393E-05
  0.41525208E-05  0.82326899E-04  0.30983832E-05 -0.33797385E-05 -0.14619948E-05
  0.11896978E-05 -0.72891996E-06  0.15601773E-05  0.35470943E-06  0.43851051E-06
  0.48689311E-06 -0.87416996E-06 -0.56439250E-05  0.42284256E-05  0.25349824E-05
  0.20569383E-05  0.18476587E-05  0.41363024E-05 -0.80679352E-07 -0.14034089E-04
  0.10134207E-05  0.31503291E-05  0.29917299E-07  0.21702161E-05 -0.70678182E-05
 -0.21158340E-06 -0.26304173E-06  0.34112664E-05  0.97824216E-05  0.20582642E-05
 -0.38907257E-05  0.25153788E-05  0.57639160E-06 -0.85978862E-06 -0.99574605E-07
  0.56322881E-06 -0.28557069E-06 -0.21319996E-05  0.57029177E-05 -0.68988710E-06
  0.39534340E-05  0.64591984E-06 -0.52959755E-06  0.20557398E-05  0.39319712E-05
  0.28871274E-06  0.25199111E-05  0.32469598E-05  0.38791594E-05 -0.65779066E-05
 -0.42518537E-06  0.23592615E-05 -0.30225827E-05  0.29279473E-05 -0.56171672E-05
 -0.85929820E-05 -0.40786924E-05  0.34402147E-06  0.38395402E-05  0.41443995E-05
 -0.27480875E-05  0.13883037E-06 -0.16636953E-05 -0.35934495E-06 -0.22201561E-05
 -0.39884009E-05  0.30569119E-05 -0.58902804E-05 -0.58236851E-06  0.21888727E-05
 -0.85299543E-07  0.29797384E-05  0.47146193E-05 -0.82265767E-05  0.27164062E-05
  0.84072251E-06 -0.26454609E-05  0.80150603E-06 -0.30678678E-05 -0.38271949E-05

 -0.11875642E-06  0.18866895E-06  0.16339411E-07 -0.27734747E-07  0.11017109E-07
  0.81525895E-08 -0.28273714E-07 -0.14388094E-07  0.14421403E-07 -0.72101432E-07
  0.19386726E-06 -0.83088903E-07  0.55217915E-09  0.97956798E-08 -0.12976388E-07
 -0.12166332E-07 -0.17787078E-07 -0.23498024E-07  0.53097651E-07  0.17685202E-06
  0.35224797E-07  0.21497621E-07 -0.12833364E-07 -0.44080987E-08 -0.30275816E-07
  0.89358485E-08 -0.17085165E-08  0.78650991E-07  0.23141690E-06 -0.11669336E-06
  0.60012168E-07 -0.35857866E-07 -0.21809203E-07 -0.15283524E-07  0.60043992E-08
  0.33135200E-08  0.48754039E-07  0.25884925E-06 -0.31705792E-07 -0.29985969E-07
 -0.53032842E-08 -0.73745880E-08  0.93804860E-08  0.14825750E-07  0.61843997E-09
  0.69439019E-07  0.12642030E-06  0.18882730E-07  0.68783497E-08  0.12867400E-07
  0.99321164E-08 -0.51112383E-07  0.31064711E-07 -0.13412456E-08  0.60920224E-07
  0.14666306E-06 -0.15906515E-07  0.31720965E-07  0.58791026E-08 -0.11996131E-07
 -0.12828436E-07 -0.28488295E-07 -0.43903933E-08 -0.12307112E-06  0.19136738E-06
 -0.21714715E-07 -0.66639630E-07  0.92515882E-08 -0.20329858E-08 -0.18058246E-07
  0.22423516E-08 -0.25100594E-08  0.13749588E-06  0.22531806E-06  0.47130453E-07
 -0.84357256E-07  0.89095013E-08  0.12277710E-07  0.95700033E-08  0.54411875E-08
  0.35376767E-08  0.52506694E-07  0.13879398E-06  0.21877194E-07 -0.22580405E-07
  0.10097104E-07  0.90108222E-08  0.14734785E-07 -0.19755195E-07 -0.50118158E-08
  0.11068465E-06  0.17954255E-06 -0.50073912E-07 -0.90790864E-07  0.24468949E-07
  0.40690374E-07 -0.40174984E-07 -0.30246170E-07 -0.34169609E-08  0.18185201E-06
  0.12740895E-06 -0.99198646E-07  0.54130336E-07  0.19825270E-08 -0.16860308E-07
  0.26868269E-08 -0.41303034E-08 -0.13791176E-07  0.17706972E-07  0.25126320E-06
 -0.16481100E-07  0.59396934E-07  0.16016417E-07 -0.17763981E-07 -0.21466873E-07
  0.10065020E-07 -0.26651100E-07  0.68930791E-08  0.13433966E-06  0.53197141E-07
  0.93389581E-07 -0.40341777E-07 -0.12387425E-07  0.52206777E-07  0.39135434E-07
  0.13229482E-08 -0.15651599E-06  0.13474559E-06  0.74124286E-07 -0.22536815E-07
  0.29004158E-07 -0.85740630E-08  0.40014741E-08 -0.27216948E-08 -0.10262275E-07
 -0.38255906E-05 -0.13544206E-05  0.50008445E-05 -0.15181852E-04  0.22412005E-05
  0.68392712E-05  0.83235265E-06  0.30388500E-05 -0.60092232E-06 -0.33953820E-05
 -0.78658080E-06  0.30983832E-05  0.12229957E-03 -0.15682831E-04 -0.24229759E-04
 -0.30988725E-04  0.16957442E-05 -0.56420375E-06  0.15135470E-05  0.17070755E-05
 -0.35020148E-05  0.55840099E-05  0.22612519E-06 -0.17492693E-05  0.77572098E-06
  0.45431537E-05 -0.16752074E-05  0.11085747E-04 -0.13446371E-05 -0.62694964E-05
  0.50292266E-05 -0.45698449E-05  0.54494476E-06  0.17488572E-05  0.28949920E-05
 -0.20644632E-06 -0.63875056E-05  0.84550767E-07  0.51667561E-05 -0.32754205E-05
  0.82478411E-06  0.29140227E-05  0.41322730E-05  0.71046288E-05 -0.14411018E-05
 -0.59458422E-05  0.51842170E-06 -0.78037286E-06  0.61320462E-05  0.23294885E-05
 -0.24180299E-05 -0.17287345E-05 -0.19788615E-05 -0.29110071E-06 -0.68172735E-05
  0.15315060E-05 -0.17276029E-05  0.14357117E-04 -0.39017981E-05 -0.13165567E-05
 -0.30130226E-05 -0.17902415E-05  0.12801535E-05 -0.95475467E-06  0.10557217E-05
 -0.38127814E-05 -0.27683516E-05  0.30932671E-06  0.13069156E-05  0.45496633E-05
  0.62109695E-05 -0.34561919E-06 -0.52799368E-06  0.83008915E-06 -0.22808882E-06
  0.45481527E-05 -0.37973287E-05  0.37326485E-05  0.55077849E-06 -0.39880991E-05
 -0.17886506E-06  0.83088805E-05 -0.49472434E-05  0.11812091E-05  0.14010857E-04
 -0.14373716E-05  0.16644138E-05 -0.35782818E-05  0.44137247E-05 -0.18872923E-05

 -0.18704276E-07 -0.22777563E-06 -0.49788272E-07  0.26698418E-07 -0.22621415E-07
  0.38352519E-08 -0.39633491E-07 -0.99995374E-08  0.90910585E-08  0.36909535E-07
 -0.74203541E-07 -0.13768082E-07  0.27337509E-07 -0.22731294E-07  0.13564122E-07
  0.13755161E-07 -0.56662213E-08  0.27162222E-07 -0.36520976E-07  0.12542191E-06
 -0.79482414E-07  0.94811468E-08 -0.13899583E-07  0.16720122E-07 -0.87362637E-08
  0.71678670E-08  0.26146023E-07 -0.38257293E-07 -0.23928342E-06 -0.57107127E-08
 -0.18739654E-07  0.29314762E-07  0.93339615E-08 -0.14890141E-07  0.70768077E-08
 -0.58577536E-08  0.47321217E-09  0.17534212E-08  0.92173421E-08  0.11080563E-07
  0.54743794E-07 -0.24496627E-07 -0.27372473E-07  0.68704109E-08  0.11123240E-07
  0.76711162E-09 -0.41174983E-07 -0.22161352E-07  0.85541243E-08  0.18584625E-07
  0.17853535E-07 -0.42131415E-07  0.42978457E-08 -0.10556805E-07 -0.94246422E-08
 -0.64967686E-07 -0.59360990E-07  0.30493636E-07  0.91630009E-08 -0.63435709E-08
  0.13204299E-07 -0.11832249E-07 -0.62017106E-08 -0.28113654E-07 -0.16615022E-06
  0.85452988E-07  0.20446250E-07 -0.42275493E-08  0.15097007E-08 -0.11733485E-07
 -0.26708273E-08  0.10519453E-07  0.49301556E-07 -0.23840578E-06  0.22394674E-07
 -0.19318829E-07  0.36844099E-08  0.11930622E-07  0.40558803E-08  0.35815410E-08
 -0.29430610E-07  0.42733461E-08  0.16729597E-06  0.13941155E-07  0.32371356E-07
 -0.45087686E-07  0.40162025E-08  0.20929130E-07 -0.57983837E-08  0.35968318E-07
  0.59978449E-07 -0.26733446E-07 -0.36653124E-07  0.44026313E-07 -0.12846878E-07
  0.32938440E-07 -0.41233710E-07  0.11790508E-07  0.26763506E-07  0.38072039E-07
 -0.91089298E-07 -0.39792547E-07  0.23499989E-08  0.40890364E-07  0.15357131E-07
  0.74354570E-08 -0.20623619E-07 -0.23734264E-08  0.27389816E-07 -0.46328822E-07
  0.53373538E-08  0.13042460E-07 -0.10843879E-07  0.13596199E-07  0.94727407E-08
 -0.94434270E-08  0.15509495E-07  0.29250763E-07 -0.10114534E-06  0.58929712E-07
 -0.27693352E-07  0.71490386E-07 -0.10268860E-07 -0.15401353E-08 -0.10685583E-08
 -0.10721985E-07 -0.13210830E-07  0.81912185E-07 -0.13548324E-07  0.79350815E-08
  0.12157555E-07 -0.14080569E-07  0.94642892E-08  0.10424351E-07  0.32076089E-07
 -0.29806127E-05 -0.11449692E-04 -0.10529544E-05  0.52622845E-05 -0.23810215E-04
  0.20535062E-05 -0.36411192E-05  0.45597932E-09  0.66402381E-05 -0.96415913E-06
 -0.86262848E-05 -0.33797385E-05 -0.15682831E-04  0.10018852E-03 -0.19751311E-04
 -0.29392943E-04 -0.50787055E-05  0.98373215E-06 -0.26310242E-05  0.37972712E-05
  0.30060191E-05  0.15953534E-05  0.90188968E-05 -0.48317175E-05 -0.21094203E-05
 -0.17071707E-05  0.69214172E-06 -0.21060256E-05 -0.25588546E-05 -0.24807209E-05
 -0.27996748E-05  0.11963057E-04 -0.14232574E-05 -0.10277518E-05  0.15056603E-05
 -0.30819098E-06 -0.44541525E-05  0.26810909E-05  0.86092669E-06 -0.53243920E-05
  0.11056155E-04 -0.19014725E-05  0.43092897E-05 -0.15629366E-05  0.81421410E-06
 -0.18422250E-06  0.83546213E-05 -0.25339885E-05  0.35727617E-05 -0.75941018E-05
  0.90621309E-06 -0.22935626E-05 -0.42618145E-06  0.66796053E-06  0.31048042E-06
  0.22751022E-05  0.12950265E-05 -0.60227720E-05  0.57360227E-05 -0.14476083E-06
  0.30372113E-05 -0.28909164E-05  0.25693554E-05  0.17386866E-05  0.50796209E-05
  0.86517126E-06  0.69573084E-06  0.10102383E-04 -0.24557456E-05 -0.35033356E-05
 -0.42425030E-05  0.38639830E-05 -0.12695571E-05 -0.14334259E-05 -0.95360057E-06
 -0.13112957E-05 -0.85798621E-05  0.18417188E-05  0.20973216E-05 -0.37165529E-06
 -0.12088933E-05 -0.26305633E-05  0.28214250E-05  0.30515654E-05 -0.17662389E-05
  0.78490339E-05  0.19038124E-05 -0.41205326E-05  0.27201602E-05  0.12566454E-05

  0.20172925E-07  0.11519310E-06  0.84191682E-07  0.14271938E-07  0.55767332E-08
 -0.88689911E-09  0.10607548E-07 -0.10476270E-07  0.87331633E-09  0.49628062E-07
  0.14405666E-06  0.33567819E-07 -0.60546617E-08  0.25457747E-07 -0.14661335E-07
 -0.13585449E-07 -0.31003729E-09 -0.10791677E-07  0.30216114E-07  0.11822511E-06
 -0.11799612E-08 -0.11418824E-07  0.12592777E-07  0.73087792E-08  0.77633981E-08
 -0.29783657E-08 -0.17235719E-07 -0.14680725E-07  0.14121761E-06  0.20158667E-06
 -0.17351502E-07  0.16406725E-07  0.45327337E-07  0.82715750E-08  0.99155942E-09
  0.20375684E-07  0.55318753E-08  0.48698787E-07  0.82125860E-07 -0.20781897E-08
 -0.24905591E-07  0.45557382E-07  0.69040769E-08 -0.80417554E-08  0.11044225E-07
 -0.58900123E-07  0.10011959E-06  0.38615538E-07  0.11425465E-07  0.18962109E-08
 -0.16450091E-07  0.11306870E-07  0.49289830E-08 -0.54351521E-08 -0.41007727E-07
  0.11557408E-06  0.49170775E-07 -0.96153702E-08 -0.78976971E-08  0.16678026E-07
  0.64277638E-08  0.96090054E-08  0.77808003E-08  0.11840427E-07  0.13564242E-06
 -0.81638466E-08 -0.32770181E-08 -0.26713044E-08  0.36710330E-07 -0.25958353E-09
 -0.23534392E-08  0.70545860E-09 -0.29464765E-07  0.12853979E-06  0.19613462E-07
  0.29481068E-07 -0.36272286E-08 -0.91553533E-08 -0.17626420E-07 -0.20310042E-07
  0.63774702E-08 -0.17702394E-07  0.84540075E-07 -0.10354666E-07  0.73585910E-08
  0.15582481E-08  0.15970659E-07 -0.54873120E-08 -0.33951470E-08  0.12686979E-08
 -0.10239220E-06  0.10478347E-06 -0.78036559E-07  0.35803850E-07  0.22169335E-07
 -0.65727181E-07  0.21619435E-07  0.15590016E-07  0.13002193E-07 -0.55134769E-07
  0.71105191E-07  0.82258189E-07 -0.11586396E-07  0.13882089E-07 -0.18781951E-07
  0.57127074E-08 -0.35470425E-08  0.17272612E-07 -0.34093905E-07  0.67441944E-07
  0.17781332E-07 -0.12622125E-07  0.26396712E-07 -0.23883047E-07  0.24203812E-09
  0.85597831E-08  0.18111033E-07 -0.58896768E-07  0.11451525E-06 -0.36327572E-07
  0.11373060E-08 -0.75161682E-08 -0.25229326E-07 -0.17533531E-07 -0.80274391E-10
 -0.43372921E-10  0.17795074E-07  0.96709539E-07  0.69037850E-09 -0.19846423E-09
 -0.57853538E-08  0.46473838E-07  0.14163617E-07 -0.43603137E-08 -0.44799667E-08
 -0.10845263E-05  0.64705323E-05 -0.77417461E-05  0.44716535E-05  0.13575987E-05
 -0.30607875E-05  0.21792735E-05  0.35648314E-05  0.20788417E-05  0.14659050E-05
 -0.36436351E-06 -0.14619948E-05 -0.24229759E-04 -0.19751311E-04  0.71609645E-04
  0.56331570E-05  0.97750620E-05  0.40088402E-05  0.14623836E-05 -0.57503213E-06
 -0.40476839E-05 -0.66113990E-06 -0.45783911E-05  0.18762894E-05  0.22429860E-06
 -0.52408767E-06 -0.28261734E-05 -0.84225796E-06  0.60100898E-06  0.77965660E-05
 -0.34233786E-06 -0.13081187E-05 -0.17473475E-05 -0.20852862E-06  0.68724054E-06
  0.59097066E-06  0.31142311E-05 -0.55075476E-06 -0.34016815E-05  0.19037852E-05
 -0.40514931E-05 -0.92002141E-07 -0.18483653E-06 -0.33086423E-05  0.29087932E-05
  0.59138073E-06 -0.15675807E-05  0.48424381E-05 -0.35863410E-05  0.14851794E-05
  0.50860724E-06  0.57889221E-06  0.24675020E-05  0.74584632E-06  0.36367356E-05
 -0.17704101E-05 -0.38693066E-05 -0.18534185E-05 -0.13755839E-05  0.75515935E-05
 -0.37941195E-06  0.21994717E-05 -0.46445463E-06  0.76146723E-06 -0.18837234E-05
 -0.11188762E-06  0.15717754E-05 -0.20127953E-05 -0.96313065E-06  0.41375263E-06
 -0.33663048E-06 -0.73494146E-07  0.31586129E-06  0.10485799E-05 -0.20843118E-05
  0.18128876E-05  0.26838319E-05 -0.95652117E-06 -0.22416165E-05  0.45348928E-05
 -0.17706500E-05  0.13124844E-05 -0.29946192E-05  0.26305299E-05 -0.12804291E-05
  0.16674197E-05 -0.45358983E-05  0.31107479E-05 -0.47753374E-06 -0.11444185E-05

  0.10229285E-06  0.57231178E-06  0.79243650E-07 -0.25879383E-07  0.27865856E-08
  0.11562002E-07  0.98986374E-08 -0.39823382E-08 -0.95696675E-08  0.10753992E-06
  0.60702925E-06  0.80996070E-07 -0.85917462E-08 -0.10414540E-07  0.70444685E-08
 -0.49060757E-08  0.11487998E-07  0.11712485E-07 -0.82908167E-07  0.47108970E-06
  0.29471832E-07 -0.21752244E-07  0.14038636E-07 -0.15208312E-08  0.20563662E-07
 -0.75986904E-08  0.10980724E-07  0.83840163E-07  0.73097790E-06  0.66245887E-07
 -0.27540771E-08  0.16737948E-07  0.10479648E-07 -0.11814150E-07 -0.57477653E-08
 -0.93369918E-08 -0.96423446E-07  0.57763530E-06  0.54077431E-09 -0.11287957E-07
 -0.10453116E-07  0.14847355E-07 -0.54866100E-08  0.98334765E-08 -0.16056301E-07
  0.39513408E-07  0.61026307E-06 -0.49349591E-07 -0.26746818E-07  0.96587711E-08
  0.89385981E-09  0.41946485E-07 -0.49573953E-07  0.38578572E-08 -0.85830123E-08
  0.60584136E-06  0.10077377E-08 -0.26476419E-07  0.17610107E-08  0.61804601E-08
  0.93746700E-08  0.11001072E-07 -0.13122698E-07  0.48466718E-07  0.61134848E-06
 -0.54170949E-07  0.32711511E-07  0.27834945E-07 -0.17547878E-08  0.50178742E-07
 -0.41179455E-08 -0.11017617E-07 -0.99832471E-08  0.70901478E-06 -0.54757535E-07
  0.49569141E-07  0.82988012E-08 -0.16394099E-07 -0.34653153E-08 -0.14525139E-08
 -0.46432668E-08  0.32664875E-07  0.53238834E-06 -0.31311087E-07 -0.23039884E-07
 -0.26368479E-07  0.10074927E-07 -0.19769574E-07  0.15928910E-07 -0.18332079E-07
 -0.16740567E-06  0.57874275E-06  0.96428047E-08 -0.52970464E-07 -0.52650550E-07
  0.15284341E-07  0.42477350E-08 -0.53387963E-08 -0.82803143E-08 -0.38888670E-07
  0.70537583E-06  0.77203312E-07 -0.17033074E-07 -0.12880357E-07  0.15815038E-07
  0.95743895E-08  0.20178451E-07  0.11744829E-07 -0.60966036E-07  0.63647708E-06
  0.15409710E-07  0.32941536E-08  0.13064274E-07  0.56536784E-08 -0.42731863E-07
 -0.11124911E-07  0.55375145E-08  0.13501506E-06  0.66805724E-06 -0.47613723E-07
  0.17486980E-07  0.22584704E-07  0.19253148E-08 -0.21048598E-07 -0.11611117E-07
  0.67682691E-08  0.89760567E-07  0.68652059E-06  0.11655330E-07  0.59162875E-07
 -0.55294351E-08 -0.22449561E-08 -0.27735348E-07 -0.32060398E-09 -0.12016521E-07
  0.94116123E-05  0.13656263E-05 -0.29662393E-05 -0.45248560E-06  0.12612312E-04
 -0.41502780E-05  0.40547829E-05 -0.31015894E-05 -0.36420076E-05  0.50760306E-05
  0.41660590E-05  0.11896978E-05 -0.30988725E-04 -0.29392943E-04  0.56331570E-05
  0.89619328E-04  0.33924663E-05  0.87637894E-06  0.12167904E-05 -0.84084373E-05
  0.25318131E-05 -0.41038952E-05 -0.26732903E-05  0.21467101E-05  0.32415846E-05
  0.51371539E-06  0.10273870E-05  0.35446610E-05 -0.91864284E-06  0.27861496E-05
  0.34028497E-05  0.35550623E-05 -0.18113743E-05  0.18054009E-05 -0.16147508E-05
  0.83510547E-06  0.86631703E-05 -0.13374102E-05 -0.18094209E-05  0.71009038E-05
 -0.94778408E-06 -0.14857411E-05  0.64144584E-07 -0.16875207E-05 -0.27108815E-05
  0.33831177E-05 -0.30792754E-05 -0.86658947E-06  0.14838153E-05  0.55704637E-05
 -0.10030888E-05  0.25939841E-05 -0.12783825E-05 -0.51880937E-06 -0.44232811E-05
  0.55913386E-05 -0.72402830E-06 -0.11427810E-05 -0.92597000E-07 -0.67288479E-06
 -0.58753470E-05 -0.13367271E-06 -0.69897135E-05 -0.50479555E-05 -0.10623481E-04
  0.22325296E-05 -0.47219418E-06 -0.40069141E-05  0.13565062E-05 -0.29490425E-06
  0.18856177E-05 -0.59449262E-06  0.14962144E-05  0.19287234E-05  0.58035105E-06
 -0.31245676E-05  0.30585599E-05 -0.47312910E-06 -0.14839824E-05 -0.18841197E-06
  0.70889496E-06 -0.25158057E-05  0.20124265E-05 -0.89668320E-06  0.26569112E-05
 -0.53040949E-06 -0.29243492E-05  0.14948038E-05 -0.16903899E-05  0.15747041E-05

  0.35999288E-07 -0.40094294E-06 -0.21654583E-07  0.71680267E-08 -0.12556480E-08
 -0.14550127E-07  0.12748921E-07 -0.20203958E-08  0.29457504E-09 -0.54074468E-07
 -0.40260163E-06  0.64851012E-07 -0.66640610E-08  0.26874448E-07 -0.19187657E-07
 -0.24410272E-07 -0.25559720E-07 -0.15793380E-07  0.18409803E-07 -0.48343439E-06
  0.34668275E-07  0.51326933E-08  0.70440129E-08  0.39914723E-08  0.17718159E-07
 -0.16441850E-07 -0.46244441E-08 -0.31075158E-07 -0.37989922E-06  0.13071370E-07
  0.21669906E-07 -0.76609409E-08  0.41510455E-08  0.70915190E-08  0.10570637E-08
  0.38737180E-08  0.51860900E-08 -0.48418470E-06  0.24641832E-07  0.70460536E-08
 -0.16804707E-07  0.70421928E-08  0.55697779E-08 -0.22889139E-07  0.42196875E-08
  0.31730409E-08 -0.44928093E-06 -0.39485787E-07  0.21228653E-07 -0.11818980E-07
  0.59221420E-08  0.48165795E-10  0.30401331E-08 -0.10571169E-07  0.44626397E-08
 -0.41931686E-06  0.40364006E-08 -0.18541493E-07 -0.47751586E-08  0.15203924E-07
 -0.19442952E-07  0.37887407E-08  0.13385293E-07 -0.46799652E-07 -0.38565690E-06
 -0.44675330E-07  0.74374117E-08  0.11457421E-07 -0.61143651E-08 -0.64359136E-08
 -0.73151151E-08 -0.19605860E-08  0.70610168E-07 -0.44372243E-06  0.48392454E-07
  0.16370295E-08 -0.10216310E-07 -0.76335531E-08 -0.12378077E-07 -0.13351621E-07
  0.49872791E-09  0.99352181E-09 -0.43858547E-06  0.17500077E-07 -0.25859865E-07
  0.14343550E-07  0.40913476E-09  0.66371261E-08  0.12975448E-07  0.61509916E-08
 -0.15009821E-06 -0.46300257E-06 -0.32782287E-07 -0.59803394E-07  0.93127975E-08
  0.24482771E-07  0.37237073E-08  0.15840629E-07  0.10124048E-08 -0.71627414E-07
 -0.41206403E-06 -0.60338564E-08  0.33211705E-08 -0.30109559E-08  0.90993137E-08
 -0.10755740E-07 -0.16761320E-07  0.17359900E-07 -0.87869322E-07 -0.41276279E-06
 -0.38504117E-07  0.34127731E-08  0.83407111E-09  0.85376928E-08  0.17615700E-08
  0.74160917E-08 -0.31286338E-08  0.52329159E-07 -0.49021044E-06 -0.61360314E-07
  0.47841697E-07 -0.26926527E-08  0.79572650E-08 -0.95022896E-08 -0.29262520E-07
 -0.15835444E-07  0.90092658E-07 -0.48053778E-06 -0.71055373E-07  0.57403063E-08
  0.41711828E-08 -0.15798401E-07  0.45940656E-09  0.19947115E-07  0.28902766E-07
 -0.75485339E-06  0.75369802E-05 -0.54477830E-05  0.83824141E-06 -0.45867995E-05
  0.37627298E-05 -0.37763287E-06  0.31525682E-05  0.40618458E-05  0.14215699E-05
 -0.21757520E-05 -0.72891996E-06  0.16957442E-05 -0.50787055E-05  0.97750620E-05
  0.33924663E-05  0.62688795E-04 -0.14925452E-04 -0.35233850E-05  0.23782398E-05
  0.24922707E-05  0.39032747E-05 -0.15967588E-06  0.18349401E-06 -0.19475324E-05
 -0.84877849E-06 -0.12699137E-06 -0.22225967E-05 -0.18173035E-09  0.43091355E-05
  0.26115067E-05  0.60486458E-06 -0.79170064E-06 -0.78943072E-06 -0.68400887E-06
 -0.11683332E-06  0.21120875E-05  0.33560588E-05  0.88005311E-06  0.56618640E-05
  0.23753810E-06 -0.32837809E-05 -0.11358644E-05  0.24164358E-05  0.38520809E-05
  0.16215908E-05  0.10280393E-05 -0.17312817E-05 -0.17583028E-05  0.35196278E-06
  0.28008204E-05 -0.20611469E-06 -0.95200397E-06 -0.59977504E-06 -0.28505448E-05
  0.88241800E-06  0.12037421E-05 -0.46840402E-06 -0.97626922E-06  0.19897597E-05
 -0.70195871E-06  0.91963311E-05 -0.10195925E-05 -0.60067561E-05 -0.13383396E-06
  0.21299814E-05  0.30663860E-05 -0.26871878E-05  0.13080970E-05  0.24948630E-05
  0.25762430E-05  0.41159378E-06  0.12715227E-05 -0.21642373E-05 -0.44019309E-06
 -0.13457894E-05  0.17958200E-06  0.28116863E-05 -0.29809156E-05  0.74983418E-05
 -0.23235058E-05  0.43285903E-05 -0.41615281E-05  0.22368535E-05  0.16450487E-05
  0.48505227E-05 -0.10783273E-05 -0.13307312E-06  0.35470203E-05 -0.53489661E-06

  0.82667753E-07 -0.19359855E-06 -0.50138656E-08  0.36531374E-08  0.94101330E-08
 -0.16494878E-07 -0.91646373E-08 -0.40639587E-08  0.63014880E-08  0.87259023E-07
 -0.14586726E-06 -0.47769983E-09  0.12855971E-07 -0.12621680E-08  0.86499101E-08
  0.17366131E-07 -0.49197568E-08  0.59323055E-08  0.12688257E-07 -0.85052128E-07
  0.35837820E-07  0.31324404E-08 -0.53552943E-08 -0.25860077E-08  0.21981549E-07
  0.28532081E-08  0.75098883E-08  0.27438071E-07 -0.55001274E-07  0.10689869E-06
 -0.17258735E-07  0.58369547E-07  0.23763974E-07 -0.18054297E-07  0.14860282E-07
 -0.34499753E-09  0.28212334E-08  0.14722756E-07 -0.54501063E-07  0.15202032E-07
 -0.78242245E-08  0.10566722E-07 -0.46102542E-10  0.51213249E-08  0.90065210E-08
 -0.65832312E-07 -0.60910179E-07 -0.27166141E-07 -0.28444686E-07 -0.20816135E-07
  0.24874190E-07  0.25056495E-08  0.28859607E-08 -0.33396879E-07 -0.38225010E-07
 -0.80283746E-08 -0.74698933E-07  0.15633095E-07 -0.88906061E-08  0.12053395E-08
 -0.11523025E-07 -0.76865371E-08  0.20682673E-07 -0.20533200E-07 -0.85554673E-07
 -0.23209356E-07  0.44259718E-08 -0.14433962E-07  0.10886750E-07 -0.16753112E-07
  0.18386124E-07  0.19567553E-07 -0.54242146E-07 -0.82224072E-07  0.94791448E-08
 -0.60001502E-08  0.55346020E-08  0.71135155E-08 -0.11050929E-07 -0.44265565E-08
 -0.55952639E-07 -0.39534984E-07 -0.66805422E-07 -0.41819784E-08  0.16106369E-07
 -0.15564438E-07  0.98330496E-08 -0.70601119E-09 -0.84410142E-08 -0.13833705E-07
 -0.18795127E-08 -0.26669802E-06 -0.97433372E-07  0.12827411E-08 -0.17274546E-08
  0.13597167E-08  0.82439897E-08 -0.19591305E-07  0.12868526E-08  0.19141320E-07
 -0.37137392E-07  0.67574294E-07  0.13446438E-07 -0.52580766E-08 -0.14553862E-07
  0.25747818E-08  0.10010400E-07  0.69306232E-08  0.17094911E-07 -0.39826480E-07
  0.31397861E-07 -0.29499727E-08  0.11379283E-07  0.44775875E-08  0.36460429E-08
  0.10414310E-08 -0.12757211E-07 -0.32386609E-07 -0.72919879E-07 -0.70471705E-08
  0.83713675E-08  0.23569464E-07 -0.94208220E-08 -0.30205019E-08  0.66535165E-08
  0.27830616E-08  0.10770673E-07  0.58098622E-07  0.70910187E-07 -0.10629692E-07
  0.31102012E-07  0.12950752E-07  0.92152200E-09  0.17183088E-08 -0.27594295E-08
 -0.87531185E-06 -0.36679352E-06  0.27474920E-05 -0.27077635E-05  0.89829645E-05
 -0.14776588E-05  0.63582800E-06 -0.75929161E-06 -0.61444701E-06  0.10496486E-05
 -0.13508225E-05  0.15601773E-05 -0.56420375E-06  0.98373215E-06  0.40088402E-05
  0.87637894E-06 -0.14925452E-04  0.64375581E-04  0.32533904E-05  0.16791036E-05
 -0.29488332E-07 -0.35297829E-06 -0.48024902E-06 -0.21478974E-05  0.12968627E-05
  0.47950680E-07 -0.33700144E-05  0.97300681E-06  0.16742496E-06 -0.34819076E-05
 -0.27698468E-05  0.20384542E-05  0.21586223E-05  0.33692091E-06  0.14933171E-05
  0.43761687E-05 -0.13225966E-05 -0.49583404E-05 -0.26731220E-05  0.18771817E-06
 -0.28830446E-05 -0.71326038E-06 -0.17175904E-05  0.10053424E-05 -0.55335118E-06
  0.47514212E-07  0.38050482E-05  0.26983252E-05  0.89497498E-06 -0.40831377E-05
 -0.15060229E-05 -0.84479603E-06  0.99625282E-06  0.36676929E-05 -0.53612478E-06
  0.58183876E-06 -0.20508152E-05  0.15996580E-05 -0.34937401E-05  0.21680803E-06
 -0.58675289E-05 -0.14206167E-05 -0.11492606E-05  0.55949731E-05 -0.29057402E-05
 -0.23827147E-05 -0.93421805E-06  0.47858856E-05 -0.13834813E-05  0.70821970E-06
 -0.43365334E-07 -0.13477141E-06  0.33728263E-07  0.46703482E-05 -0.56172537E-06
 -0.10798835E-05 -0.17146208E-05  0.97109506E-06  0.50157636E-06 -0.42809185E-06
 -0.84015191E-06 -0.23590610E-06 -0.19526485E-06 -0.74567107E-06 -0.14481198E-06
 -0.39043964E-05 -0.18051144E-05  0.27298406E-05 -0.11660642E-05  0.34376370E-05

  0.11005995E-06  0.18410177E-05 -0.43581505E-07  0.21206185E-07  0.35138924E-07
 -0.10138599E-07  0.35035522E-08 -0.28925229E-07 -0.70525457E-08 -0.24622285E-07
  0.18331983E-05 -0.29442383E-07  0.42177527E-07 -0.43325078E-08 -0.24614588E-07
  0.22947504E-07 -0.37305229E-08  0.95582645E-08 -0.13809581E-06  0.19771558E-05
  0.22483448E-07 -0.28913862E-07 -0.13147688E-07  0.20698705E-07 -0.35009080E-08
  0.92973610E-08 -0.40118787E-08 -0.78933956E-07  0.19604282E-05  0.82395792E-07
 -0.25728174E-07 -0.10829348E-07  0.23845173E-07 -0.29619535E-07  0.44469429E-08
  0.90618079E-08 -0.45785065E-07  0.19411199E-05 -0.33749900E-08  0.44270526E-07
 -0.13220644E-07  0.82609623E-09 -0.19203835E-08 -0.11024732E-07  0.22050087E-07
 -0.29079566E-07  0.18341093E-05 -0.23260705E-10 -0.39106096E-07  0.53540415E-10
  0.55957023E-08 -0.14438755E-07  0.85620140E-08  0.11829611E-07  0.14051140E-07
  0.19211877E-05  0.94122946E-07  0.49892478E-07  0.42511267E-08 -0.16153899E-07
 -0.29219744E-07  0.87394920E-09 -0.13128807E-07 -0.13101735E-06  0.18786241E-05
  0.23741101E-07 -0.65032273E-07  0.14688586E-07  0.10755512E-08 -0.11731059E-07
  0.12681045E-07 -0.18332042E-08  0.65964288E-07  0.19872988E-05 -0.50467751E-07
 -0.55355744E-07  0.21270283E-07  0.29748774E-07  0.28657658E-07 -0.22512503E-07
 -0.89712868E-09  0.51956021E-07  0.18370415E-05  0.24429978E-07 -0.28945417E-07
 -0.44448801E-08  0.81103035E-08 -0.20660277E-07 -0.13497196E-07 -0.47815484E-08
  0.11795922E-06  0.20115994E-05  0.21776388E-07 -0.34795181E-07  0.13527171E-07
  0.13091409E-07  0.21428125E-07  0.32515447E-08 -0.35046007E-08 -0.73509036E-07
  0.19768254E-05 -0.11115258E-07 -0.17184908E-07 -0.19627896E-08 -0.61346707E-08
 -0.12875921E-07  0.16331963E-07 -0.93265148E-08 -0.20097457E-07  0.17656173E-05
 -0.22957194E-07  0.15113937E-07  0.13931737E-08 -0.15153238E-07 -0.87544679E-08
  0.99043290E-08  0.19198485E-07 -0.92265469E-08  0.17983240E-05  0.54769341E-07
  0.92308037E-07  0.21927960E-07 -0.29848666E-07  0.25610059E-07 -0.56613439E-08
 -0.53584298E-08  0.31380528E-07  0.18251329E-05  0.13785865E-07 -0.29635995E-07
 -0.17831127E-07  0.72248744E-09  0.21785067E-08  0.20025791E-07  0.14626917E-07
  0.12080778E-04 -0.63107769E-05  0.32002558E-05 -0.81306561E-05  0.35145563E-05
 -0.11423814E-05 -0.27078027E-06  0.35884975E-05 -0.56405397E-09  0.51241818E-06
  0.63081553E-05  0.35470943E-06  0.15135470E-05 -0.26310242E-05  0.14623836E-05
  0.12167904E-05 -0.35233850E-05  0.32533904E-05  0.98911818E-04 -0.31069360E-04
  0.11625409E-04 -0.28411051E-05 -0.53956200E-05  0.76242241E-06 -0.19568616E-05
  0.83617705E-06 -0.34320493E-05  0.42904252E-05 -0.30686723E-06  0.33831753E-06
  0.50169022E-05  0.77177266E-06 -0.24262599E-05  0.80379928E-07  0.36152998E-05
  0.24095596E-05  0.56033696E-05  0.16059581E-05 -0.70192917E-06 -0.16522147E-04
 -0.64889033E-06 -0.12522233E-06  0.79469768E-05  0.18666656E-05 -0.53159639E-06
  0.11210430E-04 -0.83877365E-06  0.33166748E-05  0.11234322E-05  0.34507435E-05
  0.10958776E-05 -0.32379762E-05 -0.27898773E-05 -0.13937864E-05  0.10766431E-04
 -0.34774388E-05  0.57201591E-05 -0.28837078E-05 -0.30029511E-05  0.19797319E-05
  0.50100882E-05  0.18645327E-05  0.35826581E-05  0.92285241E-06  0.35416003E-05
 -0.94801187E-06  0.64950909E-05 -0.29836177E-05 -0.32832407E-05  0.14000329E-05
 -0.32876870E-06 -0.12864185E-05  0.21352215E-05 -0.73137780E-06 -0.97187622E-06
 -0.50066405E-05  0.14708232E-05 -0.16026867E-05  0.17311401E-05 -0.20404636E-05
  0.58883754E-05  0.20061443E-05  0.28901999E-05 -0.34170074E-05 -0.57590256E-05
 -0.15303289E-05  0.36575629E-05  0.32247767E-05  0.30584826E-05  0.64218859E-06

 -0.62271030E-07 -0.33323438E-05 -0.57566600E-07  0.58705257E-07 -0.20521241E-07
 -0.18462852E-07 -0.97143915E-08 -0.16771911E-07  0.35065645E-07 -0.16320573E-06
 -0.34028092E-05 -0.44664308E-08  0.22466737E-07  0.41997814E-07 -0.37637084E-08
  0.23958101E-08  0.69296606E-08 -0.53112440E-08  0.33490646E-07 -0.36540053E-05
 -0.24380578E-07 -0.24573149E-07 -0.11915923E-08  0.93818976E-08 -0.38205530E-07
 -0.11232319E-07  0.36600422E-07 -0.79767754E-07 -0.33600710E-05 -0.22918497E-07
  0.25465106E-07  0.12842224E-07  0.13586969E-07 -0.23199737E-07  0.79172186E-08
 -0.35616307E-07  0.19870952E-07 -0.33073348E-05  0.54277680E-07 -0.41776956E-07
 -0.99402482E-08  0.41876919E-07 -0.13926044E-07  0.35139533E-07 -0.53393925E-08
  0.99565535E-07 -0.35340420E-05  0.14263323E-07 -0.12568764E-07 -0.35948910E-07
  0.16843792E-11  0.46078800E-07  0.33017663E-08 -0.31069412E-07  0.89004658E-07
 -0.33381784E-05 -0.47379823E-07  0.45161938E-07 -0.31953835E-09 -0.15513870E-07
 -0.62962973E-08 -0.81151270E-08 -0.20817241E-07  0.10201208E-07 -0.33912737E-05
  0.26024695E-08  0.30950613E-07 -0.61518688E-08 -0.65250657E-08  0.64057934E-08
 -0.22224008E-07 -0.32232852E-08  0.10367300E-06 -0.33808977E-05  0.93009281E-07
  0.54556998E-09 -0.29947721E-07  0.25305467E-07 -0.32164417E-08 -0.62355174E-08
 -0.17197409E-07 -0.13652079E-06 -0.32924273E-05 -0.44380094E-07  0.93877517E-08
  0.17824073E-07  0.11925879E-08 -0.37104680E-07  0.80502839E-08  0.27274141E-07
 -0.84729169E-07 -0.32985746E-05 -0.10833094E-06  0.29035206E-07  0.30922143E-07
  0.81794376E-08  0.69425944E-08  0.14900176E-07  0.27261529E-07 -0.45000097E-07
 -0.33761770E-05  0.94506284E-08  0.11031417E-07 -0.77778729E-08  0.37013620E-07
  0.88951149E-08 -0.76461829E-08  0.21533447E-07 -0.31306659E-07 -0.32481032E-05
  0.66037459E-07 -0.18476109E-08  0.22963922E-07 -0.14947135E-08 -0.23927380E-07
 -0.14053203E-07 -0.31451531E-07  0.51647081E-07 -0.34133587E-05 -0.80323681E-08
 -0.97628406E-08  0.10102902E-07  0.49760048E-08  0.14427018E-07  0.82122491E-08
  0.14779829E-07  0.50180692E-07 -0.34253504E-05 -0.72530530E-08 -0.13005438E-07
 -0.69134210E-07  0.39471782E-07  0.44859540E-07  0.12992913E-07 -0.17077630E-07
 -0.10142851E-04 -0.13631929E-04  0.30065312E-05  0.46730386E-05 -0.20545657E-05
 -0.13296388E-05  0.71015741E-05 -0.39980750E-07 -0.10351961E-05 -0.61603608E-05
 -0.14251937E-04  0.43851051E-06  0.17070755E-05  0.37972712E-05 -0.57503213E-06
 -0.84084373E-05  0.23782398E-05  0.16791036E-05 -0.31069360E-04  0.13152639E-03
  0.40051583E-05  0.10842385E-04  0.11515674E-04 -0.34090027E-05 -0.46195341E-05
 -0.26960110E-05  0.28423359E-05  0.78222554E-05 -0.12981154E-05 -0.38282691E-05
 -0.12118786E-06 -0.68656021E-05  0.21855408E-05  0.16084319E-05  0.15256166E-05
 -0.33523340E-05  0.11730698E-05 -0.22997271E-04 -0.42512708E-05  0.48797626E-05
  0.66881691E-05 -0.41341941E-05  0.19791536E-05 -0.39737909E-05  0.55570421E-05
 -0.17707732E-05 -0.62815430E-05  0.51139868E-05  0.10909098E-05 -0.12084108E-04
  0.22009747E-06  0.59682903E-05  0.13268432E-05 -0.43458359E-05 -0.63563503E-06
  0.82083749E-06 -0.68970451E-05 -0.30541038E-05  0.97640606E-05  0.99779863E-06
 -0.23267461E-05 -0.23799256E-05  0.19346044E-05  0.83500456E-05 -0.91236719E-05
 -0.27309344E-05 -0.39439835E-05  0.90291891E-05 -0.20492640E-05 -0.76421681E-05
  0.19213604E-06  0.34415908E-06 -0.16945868E-05  0.23020098E-05  0.28297709E-06
  0.35138046E-05 -0.56451816E-05  0.40981060E-05 -0.32732417E-05 -0.27818799E-06
 -0.43900788E-05  0.51604061E-05 -0.16309825E-04 -0.48916660E-05  0.11984872E-05
  0.12789008E-04 -0.10250301E-05 -0.19122061E-05 -0.13649045E-05 -0.38289210E-05

 -0.42490482E-07 -0.17537356E-06 -0.29311789E-07 -0.13965646E-07  0.65455873E-08
 -0.71435383E-08  0.85235431E-08  0.54968622E-08 -0.24375874E-07 -0.16991948E-07
 -0.16879800E-06 -0.12330959E-06 -0.55928043E-08  0.11241921E-07  0.17049807E-07
  0.22212197E-07 -0.15409171E-07 -0.73499106E-08  0.44557189E-07 -0.12022649E-06
 -0.79685328E-07  0.91859943E-08  0.26322118E-08 -0.58008681E-08 -0.18620637E-08
  0.43197361E-08  0.16373124E-07  0.11689628E-07 -0.12243356E-06  0.37183235E-08
  0.11479899E-07 -0.99173155E-08  0.13375796E-07 -0.15706897E-07  0.76144313E-08
  0.22514483E-07 -0.23139344E-08 -0.20302280E-06  0.45852993E-07 -0.41299375E-08
  0.16231833E-07 -0.20233530E-07  0.49156645E-09  0.21392048E-07  0.66125553E-08
  0.63342143E-08 -0.92338359E-07  0.17572223E-07  0.63421345E-09  0.24832132E-07
 -0.20204790E-07 -0.12609292E-07 -0.16202359E-07  0.90021235E-08  0.70119371E-07
 -0.21820586E-06  0.69171391E-07  0.62312208E-08 -0.51903927E-08  0.12211500E-07
 -0.22304867E-07 -0.14745419E-08 -0.11939422E-07  0.15258080E-07 -0.26326297E-06
  0.16869625E-07  0.18174106E-07 -0.82264237E-08 -0.11126163E-07  0.43730811E-08
 -0.19688961E-07 -0.10600921E-07 -0.38204913E-07 -0.14849860E-06  0.30118721E-07
 -0.31477777E-07 -0.12397274E-07  0.11852109E-07 -0.47173925E-08  0.22085055E-07
  0.96619490E-08  0.19332395E-08 -0.21553538E-06  0.21801430E-07 -0.18014392E-07
  0.75986897E-08  0.91399891E-08 -0.75748225E-08  0.28227276E-08  0.14936053E-07
  0.57085928E-09 -0.21867006E-06  0.19202842E-07 -0.39691455E-08  0.10789343E-07
  0.17852735E-07 -0.75578245E-08 -0.30306654E-08  0.28443871E-07 -0.16045376E-07
 -0.11235753E-06 -0.60894441E-07 -0.53183397E-08 -0.11231699E-07  0.40156323E-07
 -0.40876924E-08 -0.69112347E-08 -0.10207929E-07 -0.49904074E-07 -0.22745513E-06
  0.34778400E-07  0.60772416E-08 -0.23265195E-07  0.18924750E-07  0.11078190E-07
 -0.25910413E-10  0.86475617E-08  0.84850502E-07 -0.20552995E-06 -0.61566429E-07
  0.13670659E-07  0.25302252E-07 -0.25132057E-07  0.87340076E-08 -0.19570613E-08
 -0.50558942E-08  0.79834351E-08 -0.22370857E-06 -0.69930167E-07  0.23146090E-07
 -0.32935644E-07  0.31586318E-08  0.82822612E-09 -0.79968837E-08  0.23522099E-07
  0.23091783E-05 -0.54921995E-05 -0.47569426E-05  0.17325783E-05 -0.56159318E-05
 -0.41892436E-06  0.91579033E-07 -0.37339677E-05  0.70161054E-05  0.19366224E-05
  0.16588284E-05  0.48689311E-06 -0.35020148E-05  0.30060191E-05 -0.40476839E-05
  0.25318131E-05  0.24922707E-05 -0.29488332E-07  0.11625409E-04  0.40051583E-05
  0.72936465E-04 -0.45514348E-06 -0.84808622E-06 -0.24159924E-05 -0.12260127E-05
 -0.16363370E-05 -0.23700180E-05  0.18852899E-05  0.33849603E-05  0.53844096E-05
  0.28776714E-05 -0.59673025E-06  0.48963350E-06  0.15661351E-05 -0.89613251E-06
  0.10987893E-05 -0.40567435E-06 -0.18116826E-05 -0.56986876E-05  0.87074977E-06
 -0.16746449E-05 -0.37622755E-06  0.19349335E-05 -0.63282456E-05  0.48707010E-05
  0.41796237E-05  0.17676680E-05  0.19526997E-05 -0.14981480E-05 -0.19936231E-05
 -0.13892327E-05 -0.42354492E-05  0.28959511E-05  0.61954432E-06  0.50774554E-05
 -0.49183419E-05  0.79225283E-08  0.20476146E-06  0.10347665E-05 -0.20795074E-05
  0.23511764E-05 -0.29205635E-06  0.24191476E-05 -0.67311323E-06  0.33056908E-05
  0.61724419E-05  0.57078282E-06  0.78191601E-06 -0.37226549E-05 -0.84572215E-06
 -0.16680720E-05 -0.43796396E-05 -0.62191716E-06  0.85593781E-06  0.69702866E-05
 -0.68432357E-06 -0.15489423E-05 -0.14363929E-06  0.32376466E-05 -0.22194897E-05
  0.15237426E-05 -0.25431167E-05 -0.40602766E-07 -0.16566314E-05 -0.41958499E-07
 -0.81443902E-06  0.32951358E-05  0.10773868E-05  0.21339554E-05  0.27355612E-05

  0.57751453E-07  0.62749928E-06 -0.16497240E-07  0.21794468E-07  0.12766800E-07
  0.16162328E-09 -0.29199780E-07 -0.26868992E-07  0.67550061E-08  0.60475882E-07
  0.54185371E-06  0.54915744E-07 -0.22354171E-07 -0.20900419E-07  0.10698099E-07
  0.52297367E-07 -0.16957137E-07 -0.67360154E-08  0.71547664E-07  0.45150656E-06
 -0.49551399E-07 -0.23575724E-08  0.65676157E-08 -0.18132180E-08  0.61556908E-08
  0.28913464E-07 -0.14816034E-07 -0.45445637E-07  0.59486273E-06  0.34854819E-07
  0.90654301E-08 -0.28400948E-08  0.17739059E-07  0.30726724E-08 -0.26465474E-07
  0.54497911E-08  0.17598060E-06  0.53386364E-06  0.46022052E-08 -0.18355226E-08
 -0.13030725E-07 -0.18539623E-07 -0.55787203E-08  0.31701552E-07  0.24878443E-07
  0.26314098E-07  0.53011317E-06  0.99366836E-07 -0.12158878E-07 -0.76536915E-08
  0.56710553E-09  0.94406263E-08  0.22504867E-07 -0.86574257E-08  0.19468079E-06
  0.65956069E-06 -0.11531490E-07 -0.15860179E-07 -0.80039238E-08 -0.16960271E-07
 -0.23752403E-07 -0.33054497E-07 -0.14054151E-07  0.64025561E-08  0.58281661E-06
 -0.14511837E-07 -0.24023468E-07  0.30545939E-07 -0.16724755E-07 -0.29619047E-07
  0.90482945E-08  0.58876794E-08  0.28293941E-06  0.51219003E-06 -0.14765250E-06
 -0.20832070E-07 -0.62949629E-07  0.19877057E-07  0.12158131E-08 -0.53035574E-09
  0.79450233E-08  0.60186646E-07  0.59376937E-06  0.34350811E-07 -0.20727845E-07
  0.18851478E-07 -0.19220199E-08 -0.19625761E-07  0.73084989E-08 -0.15734797E-07
  0.84861237E-07  0.59523914E-06 -0.11653609E-07 -0.15938539E-07 -0.25543976E-07
  0.78781335E-09  0.14371722E-07  0.26445381E-07  0.69212686E-08  0.23790630E-06
  0.62066239E-06  0.61836790E-07 -0.11853728E-07 -0.13311070E-07 -0.57957710E-08
  0.37886198E-07 -0.26305247E-07  0.94525341E-08 -0.19410344E-06  0.61052876E-06
  0.71751214E-08  0.65295064E-07 -0.25579510E-07 -0.36411010E-07 -0.30486327E-07
 -0.82114507E-08  0.15300265E-07 -0.24539103E-06  0.56807297E-06  0.27386252E-07
  0.39314788E-07 -0.10074255E-07 -0.24487697E-07  0.97472301E-08  0.19273713E-08
  0.26547343E-08  0.83777963E-07  0.52057329E-06  0.33261078E-07 -0.37759090E-07
  0.34741997E-07  0.23088067E-07  0.12670437E-07  0.49134448E-08  0.17444227E-07
 -0.85465158E-05 -0.93908202E-05  0.28379031E-05  0.35298683E-05  0.46784638E-06
  0.15573838E-05  0.10910506E-04 -0.14782212E-06  0.21226016E-05 -0.89538774E-05
  0.15323843E-05 -0.87416996E-06  0.55840099E-05  0.15953534E-05 -0.66113990E-06
 -0.41038952E-05  0.39032747E-05 -0.35297829E-06 -0.28411051E-05  0.10842385E-04
 -0.45514348E-06  0.12654310E-03 -0.23422387E-04 -0.25255848E-04 -0.28424737E-04
  0.80191816E-05 -0.46552320E-05  0.53711874E-05  0.37173144E-05 -0.23923751E-05
  0.61970759E-06 -0.14698059E-06  0.83139740E-06 -0.49037820E-05  0.64283272E-05
 -0.28565336E-06  0.88320289E-06 -0.87132614E-06  0.28744687E-05 -0.15765150E-04
  0.14387124E-05  0.56627999E-06  0.38737315E-05 -0.17351777E-05  0.48866875E-06
  0.59799739E-05 -0.19566607E-05  0.11079700E-05  0.65049347E-05  0.43238682E-05
 -0.43113701E-05  0.69402714E-05 -0.27341320E-05 -0.30340645E-05 -0.28893174E-05
 -0.49744195E-05 -0.44013052E-05  0.11664760E-04 -0.28826338E-05  0.38104674E-06
 -0.30019076E-05  0.34782619E-05 -0.14458776E-05  0.12438736E-05 -0.11240615E-06
 -0.14066871E-05 -0.99143297E-05  0.64195732E-05 -0.10650055E-06 -0.42191193E-05
  0.14064200E-05 -0.37576959E-06 -0.13153755E-05 -0.71119710E-06  0.19100075E-05
  0.25179595E-05  0.25203022E-05  0.16045158E-05 -0.31250770E-05 -0.68770023E-05
 -0.48499562E-06  0.92764098E-05 -0.66183668E-05 -0.40015116E-05 -0.56758418E-05
  0.21184823E-05  0.97054532E-06 -0.37100278E-06 -0.48246384E-05 -0.24306287E-05

  0.44945472E-07 -0.55987163E-06  0.42570240E-07  0.62983927E-08 -0.10764487E-06
  0.96436094E-08 -0.10990446E-07  0.93362252E-08  0.37895980E-07 -0.43846322E-07
 -0.71601604E-06 -0.57856198E-07 -0.81809009E-08  0.20043531E-07 -0.11044983E-07
  0.15921061E-07 -0.60088426E-10  0.20346236E-08 -0.66186002E-07 -0.49988823E-06
 -0.68868668E-07 -0.79159687E-08 -0.14047615E-07 -0.28564246E-08 -0.17172237E-07
  0.22579257E-08  0.55250868E-08  0.12596713E-06 -0.89245537E-06 -0.16683918E-09
  0.56547523E-08 -0.20508028E-07 -0.32618408E-08  0.76087344E-08  0.22654784E-07
  0.14007558E-07 -0.73017753E-07 -0.67619119E-06  0.56296008E-07 -0.13488726E-07
  0.32299985E-07 -0.23960214E-07 -0.55460575E-08 -0.88233755E-08 -0.30972658E-07
  0.46049937E-07 -0.65650977E-06 -0.58774165E-07  0.21214360E-07  0.38105304E-08
  0.44081162E-08 -0.12445031E-07 -0.22210895E-07  0.21375076E-08  0.33192155E-08
 -0.63940750E-06 -0.42569958E-07  0.68004166E-08 -0.39759766E-08 -0.92738826E-08
 -0.11441355E-07 -0.80151863E-08  0.21230932E-07 -0.12873739E-07 -0.70349544E-06
  0.56526213E-07  0.17894911E-07 -0.49500123E-07  0.21426970E-07 -0.23762662E-07
  0.62241840E-08 -0.37348333E-08  0.38024359E-07 -0.59804402E-06  0.10734045E-06
 -0.29332979E-07  0.95413948E-07 -0.22634193E-07  0.24843468E-07  0.21464124E-07
  0.10590493E-07  0.61455122E-07 -0.53189791E-06  0.11280299E-07 -0.11602896E-07
 -0.15822806E-08  0.21763974E-07  0.41446930E-07 -0.11918745E-07  0.34898977E-07
  0.44976220E-07 -0.72868915E-06  0.52962066E-07 -0.20487920E-07  0.65212723E-07
 -0.25066898E-07 -0.34503387E-07  0.23745968E-08  0.60715678E-07  0.66444876E-07
 -0.79818253E-06  0.71977041E-07 -0.69890785E-08  0.38980281E-08  0.96556240E-08
  0.68958997E-08 -0.75121997E-08  0.14977117E-08 -0.15124092E-07 -0.47589687E-06
  0.20335139E-07 -0.34506628E-07 -0.37482398E-08 -0.45293931E-08 -0.32943154E-07
 -0.24250001E-07  0.71281535E-08  0.11368151E-06 -0.51351651E-06  0.42998668E-07
 -0.14750701E-07  0.51121299E-08 -0.43698866E-09 -0.18794177E-08  0.13088417E-07
 -0.78678295E-08 -0.24192244E-07 -0.54745893E-06 -0.81258989E-07  0.25702505E-07
 -0.28415636E-07 -0.27160742E-07  0.38877533E-07 -0.18129250E-08 -0.25279374E-07
 -0.18850782E-05 -0.10304300E-04  0.45653346E-05  0.26629123E-05 -0.31937424E-05
 -0.10403431E-06  0.89023342E-06 -0.75984433E-06 -0.13445018E-05 -0.83238408E-06
 -0.40645932E-05 -0.56439250E-05  0.22612519E-06  0.90188968E-05 -0.45783911E-05
 -0.26732903E-05 -0.15967588E-06 -0.48024902E-06 -0.53956200E-05  0.11515674E-04
 -0.84808622E-06 -0.23422387E-04  0.13587857E-03 -0.23027416E-04 -0.32066296E-04
 -0.64445717E-05  0.94689299E-05 -0.11463901E-05 -0.86832775E-05 -0.71872118E-06
  0.27327259E-05 -0.16308820E-04  0.22223959E-05 -0.61634768E-05  0.78228837E-06
 -0.40456390E-05 -0.89184183E-06  0.24469384E-05 -0.22273948E-06 -0.19025589E-05
  0.32542418E-05 -0.14797065E-05  0.25496936E-06  0.13117775E-05  0.49616289E-05
  0.14403982E-05 -0.25420177E-05  0.49596425E-06  0.45878583E-05 -0.12590052E-04
  0.11904377E-05  0.87028377E-06 -0.14822139E-06  0.16243337E-05 -0.51918853E-05
  0.16825980E-04 -0.36259083E-05 -0.77308947E-05 -0.37443463E-05  0.41470408E-05
  0.11535849E-05 -0.15276085E-05  0.55788353E-05  0.11005081E-05  0.64302199E-05
  0.51039855E-06  0.97443030E-05 -0.90966670E-06 -0.76951533E-06 -0.93477529E-05
 -0.21669837E-05  0.38362636E-05  0.42215775E-05 -0.67637817E-05 -0.20462879E-05
  0.38640018E-05  0.13747513E-05 -0.11394751E-05 -0.23269919E-05 -0.80051562E-06
  0.18521407E-05 -0.98484216E-05  0.46766788E-05  0.21057041E-05  0.64446282E-06
  0.14481086E-04 -0.22464919E-05 -0.12698701E-05  0.28782632E-07 -0.22748383E-05

 -0.33117638E-07 -0.11931349E-06  0.39015330E-07  0.66239812E-08  0.17765340E-07
 -0.23273448E-07  0.96648281E-08 -0.11114051E-07 -0.44118490E-09 -0.71324080E-07
 -0.13938972E-07 -0.38331017E-07  0.63866508E-09  0.73974399E-08  0.47844937E-08
 -0.58815220E-08  0.20616494E-07 -0.79242941E-08 -0.12692748E-07 -0.69532123E-07
  0.12906313E-06  0.56100752E-08 -0.32334397E-09  0.68399325E-08 -0.37423149E-08
 -0.91581808E-08  0.55504271E-08  0.24718073E-07 -0.53746284E-07 -0.11529735E-06
  0.16514913E-08  0.26131406E-07 -0.50774633E-07 -0.34246296E-08  0.72787988E-08
  0.52443367E-08  0.16727129E-07 -0.59429585E-08 -0.14372632E-07 -0.25952159E-10
 -0.13464530E-07 -0.75766284E-08 -0.93083908E-08 -0.17672733E-07 -0.21280139E-07
  0.59843916E-07 -0.19850140E-07 -0.30445381E-07  0.15846158E-08  0.13194285E-07
 -0.32849062E-07  0.13562505E-07  0.12572989E-07  0.25267941E-08 -0.53037314E-08
 -0.66716529E-07 -0.90550517E-07 -0.22277043E-07  0.40155788E-08  0.37066675E-07
  0.34832354E-08 -0.21532999E-08  0.19140493E-07 -0.99351674E-08  0.15131598E-07
 -0.81264562E-07  0.24559049E-08  0.15839864E-07 -0.31243113E-07  0.98014904E-08
  0.99495476E-09 -0.38333018E-08 -0.43524047E-07  0.45534153E-07  0.13554238E-06
  0.12166783E-07 -0.31366093E-07  0.21557767E-07 -0.12287236E-07  0.95591168E-09
  0.18492587E-08  0.29591950E-07 -0.46962456E-07 -0.54522658E-07  0.16608645E-07
  0.21845685E-07 -0.22951980E-07  0.47903174E-08  0.51070820E-08  0.98562395E-08
  0.22626112E-07 -0.36583096E-07 -0.63140066E-07  0.10851616E-07 -0.16781713E-07
  0.35672919E-07  0.13175082E-07 -0.14595191E-07 -0.53475894E-08 -0.26744243E-07
  0.21833731E-07  0.37726792E-07 -0.46635955E-08  0.84303810E-09  0.26186173E-07
  0.20220575E-08  0.25139549E-07 -0.18690061E-07 -0.19756413E-08 -0.41359983E-07
 -0.14441739E-06 -0.21038365E-07 -0.14201304E-07  0.33106300E-07  0.12936319E-07
  0.22256221E-07 -0.45925194E-07  0.36755214E-07 -0.22911027E-07  0.15936134E-07
 -0.10897545E-07  0.14783741E-07  0.89839720E-08 -0.52895063E-08 -0.20354155E-07
  0.32415360E-08  0.15427285E-07 -0.70944504E-08 -0.11151776E-06  0.22005372E-07
 -0.15096314E-07 -0.48282553E-08 -0.14790233E-07  0.46315696E-08 -0.42309833E-08
  0.56807457E-05  0.57025793E-05  0.34721453E-07  0.10957921E-05  0.14686809E-05
 -0.78453681E-05 -0.34372691E-05  0.25087808E-05  0.14724729E-05  0.12961642E-05
  0.33561636E-05  0.42284256E-05 -0.17492693E-05 -0.48317175E-05  0.18762894E-05
  0.21467101E-05  0.18349401E-06 -0.21478974E-05  0.76242241E-06 -0.34090027E-05
 -0.24159924E-05 -0.25255848E-04 -0.23027416E-04  0.72617972E-04  0.47666106E-05
  0.10762802E-04  0.34090893E-05 -0.11222485E-05  0.12562342E-05  0.30884592E-05
  0.12482790E-05  0.16632838E-05  0.33205994E-06  0.45962711E-06 -0.33025252E-05
  0.26636323E-06  0.17880047E-05 -0.30847671E-05  0.17954435E-05  0.31401878E-05
 -0.17258466E-05 -0.28535994E-05 -0.99233124E-06  0.30915741E-06 -0.47150894E-07
 -0.13469591E-05 -0.18701881E-05 -0.57087141E-06 -0.44193259E-05  0.25781438E-05
  0.32841577E-06  0.14563864E-06  0.69227857E-06  0.42387624E-05  0.41368921E-05
  0.98530008E-06  0.71482538E-05  0.10843816E-05  0.10386448E-05 -0.16456188E-05
 -0.24303477E-06 -0.21160650E-05  0.29551192E-05 -0.92628774E-06 -0.37514831E-05
  0.19910876E-05  0.53301875E-06 -0.14826636E-05  0.28149918E-05  0.10677978E-05
  0.12466106E-05  0.14263060E-05  0.54842388E-06  0.20891974E-06 -0.22255950E-05
 -0.17284279E-05 -0.63628552E-06 -0.56360023E-05  0.61662138E-06  0.30221135E-05
  0.20081325E-05 -0.37506928E-06  0.10276961E-05  0.20976332E-05  0.48191132E-06
 -0.36286585E-05 -0.30328471E-05 -0.80902702E-06 -0.56655119E-06 -0.26512892E-06

 -0.46893229E-08  0.79593982E-07  0.22953408E-07 -0.24227823E-07 -0.20295410E-07
  0.68208158E-08  0.29552439E-07 -0.66178629E-08  0.14138295E-08  0.35263125E-07
  0.22189781E-06 -0.32657378E-07  0.15396418E-07 -0.12841573E-07  0.12637499E-07
  0.14316171E-08 -0.66970418E-08  0.78000307E-08 -0.12689797E-07  0.10061810E-07
 -0.72343708E-08  0.38787652E-09 -0.18870058E-07  0.60053710E-08  0.57391649E-07
 -0.21211659E-07  0.18809545E-07 -0.55553142E-07  0.14812003E-06  0.18946290E-07
 -0.26119613E-07 -0.52108816E-08  0.52310704E-08  0.67382767E-08 -0.69907095E-08
 -0.26070498E-07 -0.10329693E-07  0.58477300E-08 -0.83344236E-07 -0.94344083E-08
  0.12328771E-07  0.15776459E-07  0.22285958E-07  0.22099098E-07 -0.39890554E-07
 -0.82573224E-07 -0.57596255E-07 -0.15309517E-07 -0.38879792E-07  0.22058691E-07
  0.19848201E-07 -0.10622354E-07 -0.10812299E-07 -0.29924776E-10 -0.65474653E-07
  0.55503345E-07  0.16808949E-07 -0.15368953E-08  0.16583760E-07  0.13852354E-07
  0.16271075E-07  0.25302532E-07 -0.64852550E-08  0.11956500E-06  0.24343598E-07
  0.10480270E-07 -0.98680651E-08 -0.12744816E-07  0.23960549E-07  0.39033375E-07
 -0.28003347E-07 -0.42966730E-08 -0.33273659E-07 -0.36798781E-07  0.56089829E-07
  0.47367152E-07  0.75731666E-07 -0.39357315E-07 -0.66841022E-07  0.30592193E-07
  0.22403574E-07 -0.17059565E-06  0.10430595E-06  0.49580482E-07  0.21892877E-07
 -0.34205061E-07  0.92939005E-08 -0.30587823E-07 -0.65639342E-08  0.15333659E-07
 -0.25081662E-07  0.40950892E-07  0.44436442E-07 -0.20683116E-07 -0.29441381E-07
  0.14556135E-07  0.17575106E-07  0.39426535E-09 -0.22294583E-07 -0.13337889E-06
 -0.49345961E-07 -0.21574093E-07 -0.15514267E-07  0.12073837E-07  0.12803290E-07
 -0.10027901E-07 -0.33682883E-08 -0.30208520E-08 -0.55165056E-08 -0.62832932E-07
  0.40762500E-07  0.31359942E-07  0.70467171E-07 -0.10511241E-07  0.31631776E-07
  0.15636620E-07 -0.17979275E-07 -0.11534061E-07  0.15407721E-07 -0.16389330E-08
 -0.23986826E-08  0.64248362E-07  0.11031101E-07  0.43953225E-07 -0.50903811E-08
 -0.48478067E-08  0.15826998E-06 -0.95671727E-07  0.23287033E-07  0.21247423E-07
 -0.26442742E-07  0.55079787E-08 -0.26252265E-07 -0.18614521E-09 -0.96745643E-08
  0.38499615E-05  0.10847217E-04 -0.35244641E-05 -0.35682710E-05  0.27178177E-05
  0.25946039E-05 -0.66743477E-07 -0.16929240E-05 -0.31694118E-05  0.12483193E-04
 -0.13526964E-05  0.25349824E-05  0.77572098E-06 -0.21094203E-05  0.22429860E-06
  0.32415846E-05 -0.19475324E-05  0.12968627E-05 -0.19568616E-05 -0.46195341E-05
 -0.12260127E-05 -0.28424737E-04 -0.32066296E-04  0.47666106E-05  0.94107279E-04
  0.29465950E-05  0.22042097E-06 -0.22428297E-05 -0.50781465E-05  0.22480492E-05
 -0.49747321E-05  0.49570205E-05 -0.20641018E-05  0.29729397E-05 -0.30881408E-05
 -0.46856566E-06  0.70749588E-05 -0.20617570E-05  0.21497976E-05  0.43739787E-05
 -0.35440815E-06  0.10248013E-05  0.29402875E-05 -0.14944470E-06  0.11698652E-06
 -0.61598626E-05 -0.35629591E-05  0.56468356E-06  0.17701634E-05 -0.11143096E-05
  0.89477253E-06 -0.68638166E-05  0.21927046E-05 -0.22330399E-05  0.35062978E-06
 -0.27792521E-05  0.33216697E-05  0.24032720E-05 -0.75416283E-07 -0.31980139E-05
  0.23477901E-05  0.15605656E-05 -0.18532486E-05  0.18648292E-06  0.57496508E-05
  0.11479429E-05 -0.29736120E-05 -0.49969853E-06  0.30811109E-06  0.76731003E-05
  0.26277828E-05 -0.29421625E-05 -0.76422211E-05  0.40996576E-05  0.33962958E-07
 -0.71908051E-05 -0.10818148E-04  0.38984074E-05  0.58274835E-05 -0.10016442E-05
 -0.19028377E-05  0.69830981E-05 -0.16459671E-05  0.34611291E-06 -0.64325219E-07
 -0.22639511E-05  0.61894033E-07 -0.90066314E-06  0.41598405E-05  0.55329777E-05

  0.41919262E-08  0.65219611E-06  0.14060430E-07 -0.21536174E-07  0.87459617E-08
 -0.17287575E-07  0.20124559E-07  0.79542945E-08 -0.10260441E-07  0.70241757E-08
  0.67842466E-06 -0.99812030E-07 -0.18934368E-07 -0.78329875E-08  0.14648600E-07
 -0.10977848E-08  0.15257792E-07  0.10215065E-07 -0.16241701E-07  0.68764036E-06
 -0.17402222E-07  0.22997740E-07  0.48903486E-08 -0.10056881E-07 -0.11702640E-07
  0.96868243E-08  0.70976866E-08 -0.16224641E-07  0.71673298E-06  0.22531380E-07
 -0.25073463E-07  0.85229187E-08  0.77470278E-08  0.12592610E-07  0.17143992E-08
 -0.14292706E-11 -0.52061279E-08  0.73158838E-06  0.10422372E-06  0.25185246E-07
 -0.12949045E-07 -0.11289517E-07 -0.40273570E-08 -0.45565347E-07 -0.12873970E-07
  0.79716316E-07  0.59819251E-06  0.71244066E-07 -0.10629924E-08 -0.27803619E-07
  0.27482519E-07  0.89538092E-08 -0.21037589E-07  0.12640882E-07 -0.38279721E-07
  0.72711162E-06  0.22905144E-07 -0.29671645E-07  0.70618499E-08 -0.20068487E-07
 -0.88778067E-08  0.13270437E-08  0.19511667E-08 -0.34367778E-07  0.71074267E-06
 -0.36464022E-07  0.18583662E-07 -0.46625284E-08 -0.50694205E-08 -0.10659598E-07
 -0.29909640E-07  0.46952013E-08 -0.67017933E-07  0.73183084E-06  0.77699670E-07
 -0.55045353E-08  0.24656853E-07 -0.30621440E-09  0.26357268E-07 -0.25219965E-08
 -0.15128454E-07  0.39476238E-07  0.69970655E-06  0.20936468E-07  0.18094387E-08
 -0.58628620E-08  0.24729180E-08  0.13245205E-08  0.13659363E-07  0.11795120E-07
 -0.97234265E-08  0.68126192E-06  0.72246073E-07  0.98749344E-08 -0.10721251E-07
  0.13458499E-08  0.18304361E-07  0.96307679E-08  0.74168730E-08  0.84069899E-07
  0.68560600E-06  0.67473791E-07 -0.18678874E-07 -0.10838272E-07  0.26355542E-07
 -0.39703107E-08  0.11147721E-07  0.16688606E-07 -0.11167027E-06  0.76731351E-06
 -0.87510263E-07  0.86398878E-08 -0.16607444E-07  0.20110520E-07  0.12877425E-07
 -0.17022657E-07 -0.17820305E-07  0.51370093E-07  0.78098207E-06 -0.33826137E-07
  0.83349454E-08  0.73098759E-08 -0.15153477E-07  0.51185544E-08 -0.23119967E-08
  0.53344096E-08 -0.10445536E-08  0.72800127E-06  0.28909177E-07 -0.98645363E-08
  0.11804217E-07  0.20120533E-08  0.19324306E-07  0.18087260E-07 -0.12213334E-07
  0.90872931E-06 -0.22594924E-05  0.70389152E-05  0.15867597E-05  0.11724115E-06
 -0.12557535E-07  0.38812636E-05 -0.10322082E-06 -0.61996636E-06  0.47391679E-06
  0.43935074E-05  0.20569383E-05  0.45431537E-05 -0.17071707E-05 -0.52408767E-06
  0.51371539E-06 -0.84877849E-06  0.47950680E-07  0.83617705E-06 -0.26960110E-05
 -0.16363370E-05  0.80191816E-05 -0.64445717E-05  0.10762802E-04  0.29465950E-05
  0.59413620E-04 -0.14969081E-04  0.20010254E-05 -0.34612998E-06 -0.16293534E-05
  0.27225480E-05 -0.10856858E-05 -0.59801861E-06 -0.25419948E-05  0.60397719E-06
 -0.21769147E-05  0.68194614E-05 -0.34775899E-05  0.13402720E-05 -0.23069336E-05
  0.11120265E-06  0.38885522E-06  0.28599701E-05 -0.58826847E-05 -0.12228767E-05
  0.82762214E-06 -0.35015825E-05 -0.59887040E-06 -0.18212945E-05 -0.40475951E-06
  0.75674775E-06 -0.11855526E-05 -0.34239439E-05  0.57220277E-05 -0.57951042E-07
 -0.97964825E-06  0.55273381E-05  0.44438069E-05 -0.17159600E-05 -0.78726260E-06
  0.10094596E-05  0.31710278E-05  0.97869638E-06  0.18697336E-05 -0.15691663E-05
 -0.32435378E-07  0.85163252E-06 -0.15368232E-06  0.10977497E-05  0.66060428E-06
  0.21599395E-05 -0.15795206E-05  0.24308131E-05 -0.14923857E-05 -0.25433771E-05
 -0.58480793E-05 -0.12870571E-05  0.30109200E-05  0.17092352E-05 -0.18528794E-05
  0.70767622E-06 -0.15098204E-05  0.13511673E-05  0.13804069E-05 -0.32303037E-05
  0.51172244E-06  0.41814752E-06 -0.46683974E-05 -0.40506678E-05 -0.15478181E-05

  0.23905990E-07 -0.12281453E-05 -0.77031479E-07 -0.17804709E-07 -0.17598633E-07
  0.26109643E-07  0.88478614E-08 -0.26187529E-07  0.14955582E-07 -0.73828734E-07
 -0.12085048E-05 -0.81149672E-08 -0.10796552E-07 -0.32373153E-08  0.71109728E-08
  0.29724196E-08 -0.18612902E-08  0.32075146E-07 -0.28498421E-07 -0.12907272E-05
  0.96521661E-07  0.10146588E-07 -0.40890844E-07 -0.24480043E-07  0.29042852E-07
  0.10342377E-08  0.29147120E-08  0.45678414E-07 -0.12242002E-05 -0.88168998E-08
  0.24819160E-07  0.96514653E-08 -0.41394020E-07 -0.16738579E-07 -0.22889216E-07
  0.18493043E-07 -0.50770971E-07 -0.11645442E-05 -0.45952551E-07 -0.35097810E-08
  0.53846641E-07  0.95617382E-08 -0.29982557E-07 -0.48976919E-08 -0.13039344E-07
 -0.14180687E-08 -0.11154480E-05 -0.18447027E-07  0.83181240E-08  0.17520371E-07
 -0.28664691E-07 -0.14500804E-08 -0.50529399E-09 -0.81894234E-08  0.13301049E-07
 -0.12378033E-05  0.17707420E-07 -0.12073902E-07  0.18859079E-07  0.34374615E-07
  0.36479841E-08  0.59804730E-08 -0.79066671E-09  0.33690991E-07 -0.12683299E-05
  0.13574008E-06 -0.14819568E-07 -0.12073801E-07  0.17005877E-07  0.86518211E-08
  0.10288953E-07  0.10567318E-07  0.84253150E-07 -0.12328780E-05  0.76985982E-07
  0.25585709E-07  0.13589423E-08  0.98055625E-08  0.33020759E-07 -0.23760371E-07
 -0.40601192E-07  0.40463084E-07 -0.11872699E-05 -0.15647634E-07 -0.15840663E-07
  0.10642605E-07  0.16543699E-07  0.21046376E-07 -0.26399872E-08 -0.94550071E-08
  0.61472004E-07 -0.12231270E-05  0.57191949E-07  0.10410173E-07  0.42846883E-08
 -0.20001157E-07 -0.27064996E-08 -0.20388672E-07  0.64903900E-08 -0.11865003E-07
 -0.12851815E-05 -0.47842360E-07 -0.10886513E-07  0.10360201E-07  0.18770740E-07
 -0.15737638E-07 -0.77399646E-08  0.21623106E-07  0.53369249E-07 -0.13130530E-05
  0.83711814E-07 -0.52564217E-08  0.72566201E-08  0.11647064E-08 -0.16483809E-07
  0.11257670E-07  0.36796037E-07 -0.18333264E-07 -0.11846619E-05  0.42224235E-08
  0.12146468E-08 -0.14350237E-07 -0.56859978E-08 -0.74765431E-08  0.27209996E-07
  0.20504991E-07  0.26955999E-09 -0.12216811E-05 -0.52251352E-07  0.19610784E-07
 -0.23173678E-07 -0.13201000E-07 -0.91176324E-08  0.10603279E-07 -0.23014564E-07
 -0.26996594E-05  0.49450224E-05 -0.39096734E-06 -0.21982224E-05  0.75135858E-05
  0.12731475E-05 -0.12445061E-05 -0.14886135E-05 -0.34958385E-05  0.12258919E-05
 -0.31965292E-05  0.18476587E-05 -0.16752074E-05  0.69214172E-06 -0.28261734E-05
  0.10273870E-05 -0.12699137E-06 -0.33700144E-05 -0.34320493E-05  0.28423359E-05
 -0.23700180E-05 -0.46552320E-05  0.94689299E-05  0.34090893E-05  0.22042097E-06
 -0.14969081E-04  0.67275198E-04  0.15530068E-05  0.18382933E-05 -0.82753474E-06
  0.24511218E-06 -0.12255462E-05 -0.30235286E-05  0.15742210E-06 -0.34928258E-05
  0.59319305E-06  0.17779105E-05  0.54935458E-05  0.46592684E-05  0.23680027E-06
 -0.39562338E-05  0.42865389E-06  0.23727167E-05  0.16532395E-05  0.23234028E-05
  0.69554203E-07  0.28699126E-05 -0.40858665E-06  0.10744387E-05  0.19525688E-05
 -0.29146796E-07 -0.20776320E-05  0.34559880E-05 -0.73158390E-05 -0.33524521E-07
  0.40964554E-05 -0.21359713E-05 -0.23104154E-05  0.43400596E-05  0.11133964E-05
 -0.11386028E-05 -0.36636870E-05  0.75101649E-06 -0.80399081E-06  0.58835879E-05
 -0.48771527E-05  0.19282616E-05 -0.39839432E-06  0.22628343E-06 -0.27814667E-05
 -0.17657198E-05  0.24190500E-05 -0.63852402E-06 -0.56749767E-05 -0.77787979E-06
 -0.10341712E-07  0.30003393E-05  0.73722786E-06 -0.92946097E-06 -0.75204376E-06
 -0.28888230E-05 -0.59142552E-06 -0.71209205E-06  0.14319507E-05  0.33288828E-05
  0.20582155E-05 -0.33763766E-05  0.77409706E-05  0.49473349E-06  0.95465378E-06

  0.30319216E-07  0.33095406E-06  0.28620780E-07 -0.11659462E-07  0.17799620E-07
  0.13013743E-07 -0.10911698E-07 -0.21453860E-07  0.10849725E-07  0.15333298E-06
  0.41841872E-06  0.80334046E-08 -0.39301821E-08 -0.52797977E-08 -0.47269685E-09
 -0.14869267E-07 -0.13834388E-07 -0.66928194E-08 -0.18944169E-06  0.45472736E-06
 -0.33927076E-07 -0.19990683E-07 -0.36712963E-08  0.10936048E-07  0.62168470E-08
  0.10924617E-07 -0.10507018E-07  0.88422151E-07  0.43574745E-06  0.63456991E-07
 -0.41410310E-07  0.24684034E-07  0.85408368E-08  0.30118329E-07 -0.41179776E-08
  0.10654864E-07 -0.52175505E-07  0.39713221E-06  0.39199514E-07  0.94343703E-08
 -0.11123953E-07  0.13553355E-07  0.10467988E-07  0.60490147E-08 -0.15187579E-08
  0.37504537E-07  0.42371354E-06 -0.15178868E-07  0.10298817E-07 -0.24104222E-07
  0.17487766E-07 -0.12993446E-08 -0.26262820E-07  0.10237373E-07  0.27014569E-07
  0.46047710E-06  0.33163682E-07 -0.78046835E-08  0.33247513E-07 -0.29134351E-08
 -0.51817027E-08  0.69065059E-08  0.19036588E-07  0.76348789E-07  0.47254318E-06
  0.41053092E-07  0.33385391E-07  0.69077217E-08  0.57707252E-08  0.20892493E-07
 -0.60490134E-08  0.18302597E-07 -0.63626851E-07  0.39340146E-06  0.25368667E-08
 -0.37105827E-08  0.25360672E-08 -0.83407289E-08 -0.60802080E-08  0.28557894E-07
 -0.62838291E-08 -0.33804158E-07  0.35096795E-06 -0.35718297E-07  0.17608473E-08
  0.20838595E-08 -0.59324768E-08  0.22937270E-07 -0.13154189E-07  0.18935126E-07
 -0.69493555E-07  0.35539013E-06 -0.70029549E-07  0.62639226E-07 -0.20766842E-07
  0.84173657E-09 -0.43960534E-08  0.37698183E-08  0.67613229E-08 -0.50890780E-07
  0.29320020E-06  0.29958833E-07 -0.12216351E-07  0.36414480E-07 -0.12010330E-07
 -0.28448443E-07 -0.13434698E-07  0.41897763E-08 -0.20939499E-07  0.42793273E-06
  0.14945131E-07 -0.20846005E-07 -0.92037164E-08  0.21737891E-08  0.45131737E-07
 -0.43956837E-08  0.66124146E-08  0.15575613E-06  0.39748792E-06  0.56367752E-07
 -0.48928748E-07 -0.71954277E-08  0.11010791E-07 -0.72109778E-08 -0.30445381E-07
  0.72119771E-08  0.75640914E-07  0.40867885E-06 -0.18424218E-07  0.17362818E-07
 -0.11310554E-07  0.71566658E-08 -0.39591188E-08  0.41659723E-07 -0.11703285E-07
  0.58859328E-05  0.48535435E-06 -0.34999816E-05  0.38959526E-06  0.21116952E-05
 -0.40345674E-05 -0.26196494E-05  0.55139239E-05 -0.51175684E-06 -0.29052903E-05
 -0.64581614E-05  0.41363024E-05  0.11085747E-04 -0.21060256E-05 -0.84225796E-06
  0.35446610E-05 -0.22225967E-05  0.97300681E-06  0.42904252E-05  0.78222554E-05
  0.18852899E-05  0.53711874E-05 -0.11463901E-05 -0.11222485E-05 -0.22428297E-05
  0.20010254E-05  0.15530068E-05  0.94920026E-04 -0.53437435E-05 -0.21817087E-05
  0.19464213E-05 -0.60714498E-06 -0.99037902E-06  0.17175711E-05  0.62835326E-06
 -0.41673603E-06  0.43904426E-05 -0.44218380E-05  0.15373819E-05 -0.26668401E-05
 -0.29503227E-05  0.12491102E-05 -0.13723226E-05 -0.57047881E-05  0.27259540E-05
  0.47981745E-05  0.35519783E-05  0.30921979E-05  0.50624381E-06 -0.45170991E-05
  0.20315554E-05  0.43303444E-05 -0.47930654E-05  0.60038933E-06  0.10561151E-04
 -0.56416733E-06  0.14826685E-05 -0.27924156E-05  0.17397336E-05  0.25616420E-06
  0.73592198E-05 -0.39808855E-05  0.47916000E-06  0.14945417E-04 -0.11102074E-05
  0.12731018E-05  0.39512641E-05  0.21796768E-05 -0.47458930E-05 -0.42679713E-05
  0.20660200E-05 -0.38664088E-06 -0.99503836E-05  0.15308168E-05  0.22912508E-05
 -0.12943700E-05  0.10352975E-05  0.71742571E-06 -0.54195283E-05  0.20711059E-05
 -0.51940174E-06 -0.89341881E-06 -0.15130601E-05 -0.22352564E-05  0.35664417E-05
 -0.36323233E-05  0.14036084E-05 -0.50236184E-05  0.40191480E-05 -0.51457053E-05

 -0.66898984E-08 -0.82811298E-06  0.59147899E-08 -0.71538726E-08 -0.92413346E-08
  0.13384254E-08  0.20727519E-07 -0.12923505E-07  0.75383468E-10 -0.69389518E-08
 -0.10236041E-05  0.19131644E-07 -0.30036411E-07  0.85274799E-08 -0.79121689E-08
  0.33985081E-07  0.17965315E-07  0.12199134E-07  0.87665996E-07 -0.67373479E-06
  0.44516407E-07  0.19688324E-07 -0.25894491E-07 -0.29545305E-07  0.14408144E-07
 -0.13702332E-07  0.86574810E-08  0.53129373E-08 -0.90443402E-06  0.31011591E-07
  0.19212993E-07 -0.66054644E-07 -0.63935613E-09 -0.16506459E-09 -0.91135363E-08
  0.99122322E-08  0.48254725E-07 -0.78960631E-06 -0.52480282E-07  0.85922166E-08
 -0.52169594E-08 -0.20675430E-07 -0.23494627E-08  0.92065274E-08  0.28957305E-07
 -0.28892271E-07 -0.83033031E-06  0.11991744E-07 -0.28133235E-07  0.20546958E-07
 -0.96966674E-08  0.12716795E-07 -0.47618161E-08  0.63653940E-08  0.10019711E-07
 -0.84073660E-06  0.86351009E-07 -0.52576664E-08 -0.60870519E-07  0.22733617E-07
 -0.13777949E-07  0.24967881E-08 -0.20483018E-08 -0.11391063E-07 -0.76671538E-06
 -0.52349336E-07 -0.24007478E-07 -0.30584035E-07  0.14761049E-07  0.10591948E-07
 -0.12871591E-08 -0.34249911E-08  0.62724370E-07 -0.85525430E-06 -0.42372847E-07
 -0.14922178E-07  0.27132914E-07 -0.12297284E-07 -0.13378111E-07 -0.32689148E-08
  0.34513011E-07 -0.45157399E-07 -0.71858470E-06 -0.22963302E-08 -0.27559343E-07
  0.47435328E-08  0.12631658E-07 -0.15929842E-08  0.86441950E-08 -0.14920920E-07
 -0.32037914E-07 -0.83024814E-06 -0.35112512E-07 -0.41308703E-08  0.37918893E-07
 -0.17279952E-07  0.88384091E-08 -0.50985724E-08 -0.36807916E-08  0.13286131E-07
 -0.71047544E-06  0.31615219E-07  0.43357220E-08 -0.60022801E-08 -0.33582508E-07
 -0.24053904E-09  0.27044742E-08 -0.31157710E-07 -0.12421215E-07 -0.91339970E-06
  0.39270523E-07 -0.60575456E-08  0.43921173E-08 -0.61713125E-08  0.74433823E-08
  0.14544033E-08 -0.23651538E-07 -0.21064189E-07 -0.74542551E-06  0.83944127E-07
  0.20451512E-08  0.18057452E-07 -0.15505844E-07 -0.23206355E-07 -0.97736347E-08
 -0.20404800E-07 -0.30396146E-07 -0.83942936E-06  0.78923029E-08 -0.31778399E-07
  0.33150695E-07 -0.13962656E-07  0.20617555E-07  0.88687153E-08 -0.11319668E-08
  0.27283333E-06 -0.24972411E-04  0.10860070E-05 -0.17188668E-05 -0.24515195E-05
  0.93581774E-06 -0.15120098E-05  0.23767076E-05 -0.29025698E-05 -0.63648939E-06
 -0.10573895E-04 -0.80679352E-07 -0.13446371E-05 -0.25588546E-05  0.60100898E-06
 -0.91864284E-06 -0.18173035E-09  0.16742496E-06 -0.30686723E-06 -0.12981154E-05
  0.33849603E-05  0.37173144E-05 -0.86832775E-05  0.12562342E-05 -0.50781465E-05
 -0.34612998E-06  0.18382933E-05 -0.53437435E-05  0.89000699E-04 -0.11534439E-05
 -0.16068763E-05 -0.41561552E-05  0.10416895E-06  0.29639028E-05  0.28065741E-05
 -0.33387884E-06  0.34289482E-05 -0.16130509E-04 -0.13579832E-05  0.41323253E-05
  0.34694737E-06 -0.16092107E-06 -0.50310667E-05 -0.25420106E-05  0.73153272E-06
 -0.37822406E-05  0.66381580E-06 -0.42092750E-05 -0.19383278E-05  0.49144468E-05
  0.86132714E-06 -0.21035763E-05  0.39014469E-06  0.23982047E-05 -0.90931101E-07
 -0.74092103E-06  0.40215821E-05  0.27042919E-05 -0.12457378E-04  0.28946281E-05
  0.50372091E-05  0.16397146E-05 -0.38709777E-05  0.29292005E-06 -0.76467027E-05
 -0.28959123E-06  0.10095199E-05 -0.41176615E-05  0.19561195E-05  0.27775241E-05
  0.29432386E-05 -0.24106643E-05  0.32832435E-05 -0.22831592E-04  0.15006936E-05
 -0.93944044E-07  0.19086344E-05  0.19632105E-05 -0.13845307E-05  0.39013265E-05
  0.44544379E-05 -0.72759043E-05  0.67997230E-05 -0.43512945E-05 -0.53856073E-06
  0.91072218E-05 -0.32386958E-05 -0.20750962E-05 -0.12917790E-05  0.42484744E-05

  0.48452702E-07 -0.87221717E-08 -0.56765918E-07  0.60614106E-08  0.30038876E-07
 -0.69987773E-07  0.45022140E-08  0.94635988E-08 -0.25664714E-07 -0.12066637E-07
  0.72819538E-07  0.57843743E-07 -0.20724651E-07  0.71441529E-08  0.19311488E-07
 -0.92509883E-08 -0.20246019E-08 -0.33278713E-08 -0.13518223E-07  0.66771965E-07
 -0.55511205E-07  0.12259874E-07 -0.16300779E-08  0.20414216E-07 -0.17764367E-07
 -0.11754815E-07 -0.34542303E-08  0.35143836E-07  0.48385372E-07  0.33198487E-07
 -0.62160511E-08  0.18612712E-07 -0.96604196E-08  0.10649021E-07 -0.62522018E-08
 -0.15374362E-07  0.46522884E-07  0.22699908E-07 -0.10350167E-06  0.14292920E-07
 -0.16586633E-07  0.13821387E-08  0.47223016E-08  0.56693297E-08  0.30169986E-08
 -0.11134863E-07  0.29383043E-07 -0.28031099E-07  0.83174017E-08 -0.12320277E-08
 -0.26891332E-07  0.85215353E-08  0.11021457E-07  0.11011110E-07  0.34251043E-07
  0.37932718E-07  0.81934344E-07 -0.62881642E-08 -0.28114170E-09  0.22176986E-07
  0.23259180E-07  0.55772323E-08  0.31271601E-08  0.43195538E-07  0.55516130E-07
 -0.57706326E-07 -0.62410194E-09  0.13061434E-07 -0.26022832E-07  0.16703106E-07
  0.24663021E-07 -0.10115975E-07 -0.13267038E-07  0.17157792E-07 -0.76608886E-07
  0.27426103E-07  0.19948847E-08  0.17332039E-07  0.42285178E-08 -0.12480377E-07
 -0.17104510E-07 -0.19742267E-07  0.15069990E-07  0.45893271E-07 -0.11887140E-07
 -0.90713734E-08  0.23355837E-07  0.12834540E-07 -0.18087935E-07  0.10542030E-08
 -0.58718864E-07 -0.63935622E-07 -0.13945711E-07  0.13597700E-07  0.43763313E-08
 -0.43188276E-08  0.91415125E-08  0.52096270E-08 -0.31490257E-07  0.10703199E-07
  0.32148480E-07  0.26556108E-07  0.10874969E-07  0.31036919E-08 -0.40425196E-07
 -0.19556307E-07 -0.19174623E-07 -0.43777130E-07 -0.17467356E-07  0.10596610E-06
 -0.12051535E-06 -0.10136433E-07 -0.15194171E-07  0.25960536E-07  0.15029652E-07
 -0.16881453E-07  0.94384464E-08  0.52755573E-07  0.62400883E-07  0.11580497E-06
 -0.19411494E-07  0.71179225E-08 -0.66908231E-08 -0.33139723E-08  0.51363250E-08
 -0.19617803E-08 -0.28764971E-07  0.90680355E-08  0.36492690E-08  0.30247491E-07
 -0.46183914E-08  0.59478843E-08 -0.12366605E-07  0.13697919E-07  0.15844648E-08
 -0.33448246E-05  0.39071155E-05 -0.12840306E-05  0.56587209E-05 -0.15289410E-05
 -0.20309848E-06  0.44493242E-06 -0.63533912E-05  0.21066398E-05  0.35995646E-05
 -0.10449248E-05 -0.14034089E-04 -0.62694964E-05 -0.24807209E-05  0.77965660E-05
  0.27861496E-05  0.43091355E-05 -0.34819076E-05  0.33831753E-06 -0.38282691E-05
  0.53844096E-05 -0.23923751E-05 -0.71872118E-06  0.30884592E-05  0.22480492E-05
 -0.16293534E-05 -0.82753474E-06 -0.21817087E-05 -0.11534439E-05  0.78442763E-04
 -0.22405758E-05  0.88268308E-06  0.81181126E-06 -0.37048022E-06 -0.57342854E-07
  0.15247104E-05  0.30975775E-05 -0.10326826E-05 -0.48810494E-05 -0.49389662E-05
 -0.15987942E-05  0.28111905E-05  0.27433777E-05  0.49929322E-06 -0.76459593E-06
  0.20606667E-05  0.12108027E-05  0.15595886E-05 -0.33211875E-05  0.28041821E-05
 -0.36316603E-05 -0.39673844E-06  0.99028660E-06  0.48612721E-05  0.10500240E-06
  0.15483869E-05 -0.41396728E-05 -0.15212493E-05  0.15419297E-05 -0.48803642E-05
  0.52377998E-06 -0.48400121E-06  0.34735742E-06  0.11914504E-05  0.79970613E-06
  0.76929163E-05  0.22227179E-05 -0.12468798E-05  0.62295264E-06 -0.18607997E-05
 -0.47463522E-05 -0.90765604E-06  0.23697321E-05 -0.13405559E-05  0.32659466E-05
  0.20183765E-05  0.51936499E-06 -0.10916501E-05 -0.29217973E-06 -0.57465648E-07
 -0.19570771E-05 -0.22496562E-05  0.43120293E-06  0.42797946E-05  0.58917371E-05
  0.23454932E-05 -0.93023648E-05 -0.33405531E-05  0.72099738E-06  0.24286874E-05

 -0.19330407E-06 -0.10951233E-06  0.50834319E-07  0.36364965E-08  0.17787657E-08
 -0.12470368E-07 -0.74828240E-08 -0.31392132E-07  0.98937446E-08 -0.62952044E-07
 -0.10191872E-06  0.30667409E-08  0.65364779E-07  0.27722710E-09 -0.19040981E-07
 -0.44162248E-07  0.14769219E-07  0.58289419E-08 -0.36667111E-07 -0.79772599E-07
  0.36089670E-07 -0.10195234E-07  0.23050631E-08  0.11432701E-07  0.60952054E-09
  0.57700236E-09  0.15354464E-07  0.11995131E-06 -0.41652703E-07 -0.87030996E-08
  0.20810535E-07 -0.21912231E-07 -0.11439121E-07 -0.16748332E-07  0.16295133E-07
  0.11794108E-07 -0.86642015E-08 -0.37665151E-07 -0.21207250E-07 -0.57364848E-07
  0.25651417E-07  0.30251190E-09 -0.48474560E-07  0.15201645E-07 -0.47509552E-08
 -0.17338001E-07 -0.31625179E-09 -0.20302486E-07 -0.39274853E-07  0.47865673E-08
  0.20733117E-07  0.13952640E-07 -0.38113577E-07  0.91889329E-08 -0.32886425E-07
 -0.72244537E-07 -0.46442388E-07 -0.42988348E-07 -0.24782908E-08  0.18239514E-07
  0.33466388E-08  0.10201862E-07  0.13329991E-07  0.50740279E-07 -0.78044708E-07
  0.64142789E-07  0.47154613E-07  0.29638391E-08 -0.94836545E-08  0.75824385E-08
 -0.73317660E-08 -0.14662692E-07  0.59450659E-07 -0.17452686E-06 -0.37383004E-08
  0.28909312E-07 -0.48742712E-08 -0.29801567E-08 -0.19955698E-07 -0.93706282E-09
 -0.12791777E-08  0.18976846E-08 -0.52855989E-07 -0.38769347E-07 -0.41633340E-07
  0.23693428E-07  0.93102594E-08  0.45942804E-08 -0.67419045E-08 -0.27550014E-08
  0.16598526E-06 -0.10402443E-06 -0.44129962E-07  0.39315376E-07 -0.17857723E-08
  0.84537526E-08 -0.36582162E-07  0.94042829E-08  0.47657685E-08 -0.12501062E-06
  0.36078261E-08  0.24848620E-07 -0.16666037E-07  0.30211198E-07 -0.38125258E-08
  0.85430202E-08 -0.30043741E-08 -0.69423128E-09  0.70771112E-08 -0.76384592E-07
  0.71962982E-07 -0.85659833E-07  0.14342779E-07  0.10972542E-07  0.23323002E-08
  0.43266447E-07 -0.11706784E-07  0.25950557E-07 -0.14087100E-06  0.93628871E-07
  0.65699147E-07 -0.22763328E-07  0.31340097E-07  0.81392913E-08 -0.18779279E-08
  0.11533977E-07 -0.80864231E-07 -0.47726796E-07 -0.48162827E-07  0.10594444E-06
 -0.11254349E-07 -0.53973788E-07 -0.11713958E-07 -0.29843378E-07  0.46144827E-09
  0.13212030E-04 -0.49895663E-05  0.43268225E-05  0.38204307E-05  0.28039190E-05
 -0.13959174E-05 -0.49699952E-05  0.18512956E-05  0.16425083E-06 -0.31397134E-06
 -0.53375833E-06  0.10134207E-05  0.50292266E-05 -0.27996748E-05 -0.34233786E-06
  0.34028497E-05  0.26115067E-05 -0.27698468E-05  0.50169022E-05 -0.12118786E-06
  0.28776714E-05  0.61970759E-06  0.27327259E-05  0.12482790E-05 -0.49747321E-05
  0.27225480E-05  0.24511218E-06  0.19464213E-05 -0.16068763E-05 -0.22405758E-05
  0.10108024E-03 -0.25142086E-04 -0.20812420E-04 -0.31978055E-05 -0.13906381E-05
  0.67553833E-06 -0.68837494E-05  0.68829919E-05  0.29747309E-05  0.14772534E-05
 -0.13206458E-05 -0.35432388E-05  0.24131979E-05  0.50873976E-06  0.29202259E-05
 -0.15908845E-05 -0.38935110E-05  0.10840945E-05  0.96559019E-05 -0.43506542E-05
 -0.97262468E-06  0.42699229E-05 -0.75520157E-06  0.94919826E-06  0.37633225E-05
 -0.19934404E-05 -0.89438063E-06  0.10064556E-05  0.23950762E-05 -0.16675962E-05
 -0.22232721E-05 -0.56663515E-05  0.55949586E-06 -0.63603191E-05  0.22064858E-05
 -0.10772061E-05 -0.61750370E-05  0.64467011E-06  0.81795267E-07 -0.32666926E-06
  0.18744451E-05 -0.32351867E-06 -0.48137873E-05  0.14893889E-05 -0.35353344E-05
  0.13605137E-04 -0.86748165E-05  0.13327244E-05 -0.70608906E-06  0.38448048E-05
 -0.10964328E-05  0.11040822E-04  0.36733824E-05 -0.36228375E-05 -0.68169006E-06
 -0.34820659E-05  0.19104922E-05  0.47318282E-05  0.46032611E-05 -0.88699136E-06

  0.10349959E-07 -0.37803569E-06  0.39119380E-07  0.41780148E-08  0.57725932E-07
  0.18797849E-08 -0.20265165E-07  0.12043850E-07 -0.64267020E-08  0.12921835E-06
 -0.28706969E-06 -0.22676530E-07 -0.44891406E-08 -0.32750206E-08  0.12109998E-07
 -0.30073440E-07 -0.11741323E-07  0.25729276E-07  0.50136096E-07 -0.62003226E-06
 -0.16145293E-07  0.77397014E-08 -0.45425637E-07  0.53724416E-08 -0.26399404E-07
 -0.40204290E-08 -0.54220147E-07 -0.92344748E-07 -0.40405466E-06 -0.29395874E-08
 -0.35635295E-07  0.70147998E-07  0.71361035E-08 -0.18439513E-07 -0.18542865E-07
  0.49659607E-08  0.92856719E-07 -0.52221575E-06  0.18306753E-07  0.17603794E-07
  0.46278243E-09 -0.28384451E-07 -0.10738965E-07 -0.73347823E-09 -0.63995851E-08
  0.72697771E-07 -0.38222377E-06 -0.60590417E-08 -0.25424691E-07  0.55214107E-07
  0.42613982E-08  0.93427993E-08  0.23062683E-07 -0.95362867E-08 -0.58641834E-08
 -0.50965517E-06  0.20762576E-08  0.10299596E-07 -0.34995199E-07  0.84111100E-08
  0.22094132E-07  0.60133683E-08 -0.32345704E-07  0.30490560E-07 -0.48190604E-06
  0.93446029E-08 -0.86139236E-08  0.21652104E-07  0.30714941E-08  0.60926563E-08
 -0.19296067E-08  0.26716493E-07 -0.59302730E-07 -0.35573810E-06  0.46522475E-07
 -0.50043764E-08  0.45062991E-07 -0.21062809E-07 -0.96335329E-08  0.19567008E-08
  0.88304429E-08  0.21413692E-08 -0.59938882E-06  0.16633296E-07  0.41468366E-07
 -0.84007547E-07  0.10007422E-08  0.26921500E-07  0.95052946E-08  0.33758620E-07
 -0.20130802E-07 -0.45286685E-06 -0.34143637E-07 -0.19302189E-07 -0.21047381E-07
  0.21102208E-07 -0.62934115E-08 -0.14221778E-07  0.31764391E-08 -0.10639909E-07
 -0.43738303E-06 -0.66296132E-07  0.42769713E-07 -0.91451336E-07  0.28681816E-07
  0.10305300E-07 -0.71450934E-08 -0.81703222E-08 -0.27147577E-07 -0.78395720E-07
  0.62885817E-08  0.25867505E-07  0.37876190E-07  0.11958027E-08  0.10841523E-07
 -0.27591324E-08  0.16580380E-07 -0.35085231E-07 -0.40616693E-06 -0.37065084E-08
 -0.26349282E-07  0.14097435E-06  0.16819362E-08  0.10186469E-07  0.85928410E-08
  0.38496123E-08  0.99619128E-07 -0.28311603E-06  0.80473706E-08 -0.10787116E-07
 -0.22090565E-07 -0.64411749E-08  0.11236567E-07  0.15009221E-07 -0.24080728E-08
 -0.25202536E-05  0.90595482E-05 -0.57688466E-06  0.22732418E-05  0.58581171E-05
 -0.66582711E-05 -0.18404739E-05 -0.16390293E-05  0.13530617E-05  0.99654434E-06
 -0.18492463E-05  0.31503291E-05 -0.45698449E-05  0.11963057E-04 -0.13081187E-05
  0.35550623E-05  0.60486458E-06  0.20384542E-05  0.77177266E-06 -0.68656021E-05
 -0.59673025E-06 -0.14698059E-06 -0.16308820E-04  0.16632838E-05  0.49570205E-05
 -0.10856858E-05 -0.12255462E-05 -0.60714498E-06 -0.41561552E-05  0.88268308E-06
 -0.25142086E-04  0.11110911E-03 -0.21231558E-04 -0.60264021E-05 -0.27255952E-05
 -0.14255768E-05 -0.30186414E-05 -0.43568694E-05 -0.12807678E-05  0.16725204E-05
  0.12047944E-04 -0.12450208E-05 -0.36710889E-05  0.11706237E-05 -0.47444618E-05
 -0.31986974E-05 -0.20012125E-06 -0.53379847E-05 -0.56257818E-05  0.37953193E-05
 -0.13839040E-06 -0.42868475E-06 -0.45159907E-06  0.23312887E-05  0.27554534E-05
  0.55273949E-05  0.26105403E-05  0.19800503E-05  0.38927607E-05 -0.24096216E-05
  0.17874034E-05  0.60459216E-06  0.19780100E-06  0.20504862E-05 -0.99725784E-05
  0.82188596E-06  0.30950483E-05  0.31125570E-05 -0.26562796E-05  0.27841940E-05
  0.43908104E-06 -0.78953366E-06  0.99961047E-06  0.13710436E-04  0.50575716E-05
 -0.11763659E-04  0.15908322E-04 -0.41434568E-05  0.20417391E-05 -0.70923800E-06
 -0.20556039E-05  0.11723264E-05  0.53014416E-05 -0.52339898E-06 -0.43523964E-05
  0.49355408E-05 -0.14306330E-05  0.26513723E-05 -0.75180661E-06  0.20744468E-05

  0.17817294E-07  0.13273216E-06  0.12759109E-07 -0.10684973E-07 -0.15466853E-08
 -0.19113060E-07 -0.23356467E-09  0.57208155E-08 -0.26750015E-07 -0.11842244E-07
  0.12977847E-06  0.40248802E-07 -0.17694991E-07  0.79541858E-08  0.11616217E-07
  0.11941888E-07 -0.72446581E-08 -0.36085927E-08  0.36239644E-08  0.13415762E-06
 -0.19811048E-07  0.12825282E-08  0.65814054E-08  0.10106535E-07  0.77983007E-09
  0.12282513E-07 -0.10240544E-07  0.44069817E-07  0.11388290E-06  0.34805648E-07
 -0.15352219E-07 -0.53578361E-08  0.93849825E-08  0.10878066E-07  0.14688242E-07
 -0.21548713E-07  0.12852877E-07  0.10400250E-06  0.51238436E-07  0.27048902E-08
 -0.30998464E-07  0.80011838E-07  0.12741051E-07 -0.10472137E-07  0.49763444E-08
  0.12703363E-07  0.13152235E-06  0.92411770E-07  0.28472385E-07 -0.28738206E-08
 -0.57182743E-07  0.44906767E-08 -0.15142719E-07 -0.20490438E-07  0.14043874E-07
  0.20331670E-06  0.29722175E-07  0.12207228E-07  0.52425964E-08  0.10764775E-07
 -0.10002887E-07  0.13086250E-08 -0.25622716E-07 -0.33804715E-07  0.13007459E-06
 -0.45409211E-07  0.51277233E-09 -0.60388716E-08 -0.32078149E-08 -0.45912558E-08
  0.25589212E-08  0.17101970E-07  0.35740560E-07  0.11613188E-06  0.46951651E-07
 -0.18908026E-07 -0.23529862E-07  0.33569100E-07  0.26265811E-09 -0.47024040E-08
  0.98383056E-08  0.15848467E-07  0.20978823E-06  0.10355946E-06  0.15797166E-08
  0.11094393E-07 -0.34552878E-07 -0.46489962E-09 -0.56609418E-08 -0.85918199E-09
  0.55048889E-07  0.15317834E-06  0.27600581E-07  0.36619485E-08  0.19001519E-07
 -0.42511549E-07 -0.30145468E-09  0.54092899E-08  0.84398415E-08  0.20262015E-07
  0.78059511E-07 -0.29541149E-07 -0.15023712E-07  0.18642620E-07  0.30283417E-08
  0.14946368E-07  0.14590372E-08  0.13209541E-07  0.23363466E-07  0.12920274E-06
 -0.13116973E-06  0.43095244E-08 -0.15805309E-07 -0.66510153E-08 -0.60834386E-08
 -0.13023096E-07  0.49067716E-08 -0.37677488E-07  0.17334996E-06 -0.29430663E-07
  0.18601096E-07  0.22310516E-08 -0.73762634E-07 -0.72516585E-08  0.36132641E-08
 -0.32225330E-07 -0.41344010E-07  0.10124804E-06  0.92454484E-07 -0.36068950E-07
 -0.10203097E-07  0.82237268E-07  0.24576018E-08 -0.11112762E-07 -0.18957170E-07
 -0.30614652E-06  0.88220216E-06 -0.84444016E-05 -0.20300015E-05 -0.55569213E-05
  0.47781149E-05 -0.18395580E-05  0.15625450E-06  0.18315303E-05 -0.38882606E-05
 -0.45395901E-06  0.29917299E-07  0.54494476E-06 -0.14232574E-05 -0.17473475E-05
 -0.18113743E-05 -0.79170064E-06  0.21586223E-05 -0.24262599E-05  0.21855408E-05
  0.48963350E-06  0.83139740E-06  0.22223959E-05  0.33205994E-06 -0.20641018E-05
 -0.59801861E-06 -0.30235286E-05 -0.99037902E-06  0.10416895E-06  0.81181126E-06
 -0.20812420E-04 -0.21231558E-04  0.67512507E-04  0.97250191E-06  0.71981513E-07
 -0.30356231E-05  0.15407646E-05 -0.26587040E-05  0.42264695E-05 -0.20244613E-05
 -0.13386042E-05  0.41573390E-05 -0.81590900E-06  0.11220793E-05 -0.14954902E-05
  0.14658495E-05  0.24169741E-05  0.32675465E-05 -0.89140359E-06  0.32959840E-06
  0.49971693E-05 -0.35045805E-06  0.77692761E-06 -0.81562627E-06 -0.52841580E-05
 -0.14949264E-05 -0.67127513E-06 -0.13399006E-05 -0.11442652E-05  0.81402145E-06
  0.15026227E-05  0.79421184E-06  0.33627274E-06  0.28194425E-05  0.32015111E-05
  0.32107775E-05  0.14240327E-06 -0.12740496E-05  0.28365152E-05 -0.48386265E-06
 -0.51569062E-06  0.23869817E-05  0.53609143E-06 -0.39349827E-05  0.60402476E-06
  0.11827305E-05 -0.17874732E-05 -0.20113097E-05  0.43613258E-08 -0.18710827E-05
  0.14448913E-05 -0.22712215E-05 -0.22882511E-05  0.31026794E-05  0.19430776E-05
 -0.20198000E-05  0.35863762E-05 -0.13502241E-05 -0.32028485E-06 -0.84226699E-06

  0.22162770E-07 -0.20881601E-06  0.41245453E-07  0.26169442E-07  0.97140848E-08
  0.89834830E-09 -0.28099284E-07  0.12580682E-07 -0.16289666E-07  0.12170552E-06
 -0.27047346E-06  0.41463371E-08 -0.29935050E-07 -0.10529319E-07  0.56334219E-08
  0.34121756E-07 -0.37576869E-08  0.11087429E-07 -0.14730587E-09 -0.18256905E-06
 -0.29861768E-07 -0.32187570E-07 -0.37652642E-07  0.21407974E-07  0.66369141E-09
 -0.10438582E-07  0.23972962E-07  0.40511865E-07 -0.12490048E-06  0.46162248E-07
 -0.43465694E-07 -0.31401782E-07  0.29614236E-08  0.52746440E-09 -0.42357044E-09
 -0.12933309E-07 -0.23134577E-07 -0.21031229E-06  0.25161764E-07  0.32723708E-07
 -0.27522267E-07  0.88097538E-10 -0.16227575E-07  0.61628238E-08  0.12048221E-07
 -0.33578493E-07 -0.18855579E-06  0.40642025E-08 -0.25502991E-07 -0.11002395E-08
  0.31778831E-08  0.19710833E-07  0.15038289E-07  0.70004545E-08 -0.83400643E-07
 -0.23903434E-06  0.20609227E-07 -0.20177886E-07  0.10153612E-07 -0.67518236E-08
 -0.85165288E-08 -0.24502978E-07  0.59986587E-08  0.77521426E-08 -0.11233907E-06
  0.19177520E-07 -0.20263800E-07 -0.61501198E-08 -0.82776075E-08  0.25374968E-07
 -0.14735421E-07 -0.20074336E-07 -0.10533549E-06 -0.25192169E-06  0.23969083E-07
  0.28399246E-07  0.28899669E-07 -0.14351500E-07 -0.18627019E-07  0.16253265E-07
  0.23084961E-07  0.63148115E-07 -0.32476052E-06 -0.80386002E-08  0.19573979E-07
 -0.50403957E-08 -0.47160029E-08  0.26404744E-07 -0.26473682E-07 -0.18023627E-07
  0.53808984E-07 -0.29152817E-06 -0.29723883E-08  0.30614515E-08 -0.38946306E-08
 -0.15794376E-07  0.32823159E-07  0.21636978E-07 -0.41407504E-08 -0.92324598E-08
 -0.22927657E-06 -0.75571658E-07  0.34998128E-07  0.38816075E-07 -0.16634345E-07
  0.27405592E-07  0.26377906E-08 -0.14386556E-07  0.58644119E-07 -0.36314562E-06
 -0.12801914E-07 -0.80466680E-08  0.18887834E-08 -0.37952996E-08  0.58900729E-07
  0.21209344E-08 -0.97828792E-09 -0.10300836E-06 -0.14639644E-06 -0.78280700E-08
  0.93244533E-08 -0.29156937E-08  0.61685520E-09  0.83639328E-07  0.20402506E-07
 -0.77212267E-08 -0.66428229E-07 -0.26568128E-06 -0.62908822E-08 -0.39358993E-07
  0.16787685E-07  0.19309696E-08 -0.11993312E-07  0.52163377E-08 -0.18492070E-07
  0.37953109E-05 -0.23062344E-05  0.28157536E-06  0.26101846E-05  0.48573568E-05
 -0.20821477E-05 -0.28803739E-05 -0.10545526E-05  0.40457274E-05  0.41882544E-05
  0.26342598E-05  0.21702161E-05  0.17488572E-05 -0.10277518E-05 -0.20852862E-06
  0.18054009E-05 -0.78943072E-06  0.33692091E-06  0.80379928E-07  0.16084319E-05
  0.15661351E-05 -0.49037820E-05 -0.61634768E-05  0.45962711E-06  0.29729397E-05
 -0.25419948E-05  0.15742210E-06  0.17175711E-05  0.29639028E-05 -0.37048022E-06
 -0.31978055E-05 -0.60264021E-05  0.97250191E-06  0.75550666E-04 -0.27013595E-05
 -0.18242399E-05 -0.30536757E-05  0.17726580E-05  0.19117593E-05 -0.20134345E-05
 -0.13672237E-05  0.32912621E-05  0.61965157E-05  0.20036016E-06 -0.27330086E-07
  0.71617011E-05  0.38304481E-05  0.20335765E-05 -0.36745871E-05  0.24847774E-05
 -0.38938344E-06  0.23581776E-06  0.89245309E-06  0.14778103E-05  0.40258019E-05
 -0.24131102E-05  0.20923595E-06  0.59022768E-05 -0.18709860E-05 -0.11062471E-05
 -0.33044757E-05 -0.24880974E-05 -0.32687815E-05 -0.69372250E-05  0.10788285E-05
 -0.90395511E-06  0.35965015E-06 -0.84063870E-06 -0.37259136E-07 -0.16388503E-05
 -0.33225137E-05  0.21352894E-06 -0.83593109E-06 -0.31943093E-05 -0.40841475E-06
  0.30105285E-05 -0.13681379E-05  0.44891438E-06  0.33311140E-05  0.35379696E-06
  0.80981696E-06 -0.24022821E-05 -0.25651645E-05  0.29451850E-05 -0.19963836E-05
 -0.39660678E-05  0.14831336E-05  0.77085274E-05  0.10500075E-05 -0.26524672E-05

  0.94116705E-07  0.40390375E-06 -0.64049608E-07 -0.25386989E-07  0.14540985E-07
 -0.16980905E-07 -0.12102087E-07 -0.30080266E-07 -0.94282932E-08  0.27092452E-07
  0.43651877E-06 -0.23241109E-07  0.10281412E-07 -0.14783351E-07 -0.82443590E-08
  0.24844868E-07  0.15923565E-07 -0.97772194E-08  0.43323281E-07  0.39656424E-06
 -0.25171883E-07 -0.64609405E-08 -0.24091619E-08  0.22347173E-07 -0.88541655E-08
  0.11369801E-07 -0.39250981E-08 -0.39078454E-08  0.44269035E-06  0.71557188E-07
  0.29471640E-07 -0.25381806E-07  0.69217347E-08  0.11125256E-07 -0.25157655E-07
 -0.46454699E-08  0.52352847E-07  0.44247623E-06  0.61998704E-07 -0.65716585E-08
  0.68982861E-08 -0.79297521E-08 -0.10002440E-07  0.34447554E-07  0.11030079E-08
  0.62538985E-07  0.37495241E-06  0.44041757E-07 -0.43457290E-07  0.14891543E-07
 -0.15892999E-07 -0.30336173E-08  0.14062739E-09  0.13177312E-07 -0.29756740E-07
  0.43213460E-06 -0.31792861E-07  0.30726837E-07 -0.76552874E-08 -0.13035815E-07
 -0.13517716E-07  0.77775047E-08  0.24168589E-08  0.67242229E-07  0.38239699E-06
  0.71867295E-08 -0.20311645E-07  0.46703534E-09 -0.38261373E-08  0.39971422E-09
  0.12848702E-07 -0.92523009E-08  0.62255195E-07  0.38660892E-06  0.48746433E-07
 -0.85152328E-08  0.62762162E-08 -0.52699162E-08  0.30570555E-07  0.10611422E-07
 -0.70519047E-08  0.21418734E-08  0.42088511E-06  0.37079175E-08 -0.23090865E-07
  0.28435903E-08 -0.21663494E-08  0.11691231E-07 -0.26704627E-07  0.45156087E-08
 -0.28486860E-07  0.43842738E-06  0.12315656E-06  0.39655020E-08 -0.18709587E-07
  0.11884806E-07  0.11596650E-07 -0.56620490E-10 -0.95890840E-08  0.23694559E-07
  0.39902906E-06 -0.46976202E-07 -0.58805870E-08 -0.28970511E-08 -0.56839226E-08
 -0.53199869E-09 -0.19691362E-07  0.30793765E-07  0.43101430E-07  0.43101157E-06
  0.29260488E-07  0.55417358E-07 -0.57706054E-08 -0.24773915E-07 -0.65618194E-08
 -0.31862771E-07 -0.48127199E-08  0.13637518E-06  0.35441036E-06 -0.31452838E-07
 -0.11589602E-08 -0.49287058E-08  0.21778272E-07 -0.73532948E-08  0.37656903E-07
  0.84344508E-08  0.14224924E-07  0.49908343E-06 -0.46200643E-07 -0.41454377E-07
  0.30755069E-07 -0.16332106E-07 -0.25526624E-08 -0.37133292E-08 -0.12340954E-10
 -0.45597955E-06 -0.29415279E-05  0.59932851E-05  0.36587248E-06 -0.18496239E-06
 -0.19897622E-06  0.17060956E-05  0.13092109E-05 -0.26035402E-05 -0.27196143E-06
 -0.20159973E-05 -0.70678182E-05  0.28949920E-05  0.15056603E-05  0.68724054E-06
 -0.16147508E-05 -0.68400887E-06  0.14933171E-05  0.36152998E-05  0.15256166E-05
 -0.89613251E-06  0.64283272E-05  0.78228837E-06 -0.33025252E-05 -0.30881408E-05
  0.60397719E-06 -0.34928258E-05  0.62835326E-06  0.28065741E-05 -0.57342854E-07
 -0.13906381E-05 -0.27255952E-05  0.71981513E-07 -0.27013595E-05  0.55075271E-04
 -0.16941535E-05  0.85037981E-05 -0.30779727E-05 -0.88623435E-06 -0.25243831E-05
 -0.64897548E-06  0.69754070E-06  0.20871419E-05 -0.29213167E-06 -0.83446999E-06
  0.14814442E-05 -0.40262558E-05  0.22719980E-06  0.30618833E-06 -0.90326360E-06
  0.73335162E-06  0.30349456E-05  0.39126937E-05  0.88828420E-06 -0.31855243E-05
  0.31160784E-06 -0.72322773E-05 -0.59539760E-05 -0.68468673E-06  0.30503355E-05
  0.88406417E-06 -0.15076424E-05  0.36354555E-05 -0.13402750E-05  0.10592466E-05
  0.28944889E-05 -0.10605473E-05  0.82053121E-06  0.60018903E-06 -0.21606632E-05
  0.10446442E-05 -0.17476358E-05 -0.30514019E-05  0.29227346E-06 -0.27767337E-05
  0.33242787E-05 -0.38403685E-06  0.21240705E-06 -0.17658297E-05  0.34482460E-05
  0.39642178E-06 -0.46299148E-05 -0.17465800E-06  0.13772222E-05  0.72921983E-05
 -0.76437495E-06 -0.18961051E-06 -0.15621340E-05  0.29143129E-05  0.15146323E-05

  0.47689771E-07 -0.43286477E-06 -0.80750514E-07  0.97168461E-11  0.25091796E-07
  0.17455771E-08 -0.14343218E-07  0.18653652E-07 -0.68601697E-08 -0.13715265E-07
 -0.38350100E-06  0.38970435E-07 -0.30378563E-08 -0.21218510E-07 -0.38152712E-09
  0.14379958E-07 -0.15605779E-08  0.88106467E-09 -0.39366238E-07 -0.36028329E-06
  0.38025969E-07  0.23448953E-07 -0.49580261E-07 -0.30217533E-07  0.23796784E-07
  0.82143740E-08  0.37476000E-08  0.17332848E-07 -0.34243482E-06  0.24853927E-07
  0.91883670E-09  0.65621579E-08 -0.20107388E-07 -0.55629012E-08 -0.21557148E-07
  0.56689387E-08  0.38000811E-07 -0.39466648E-06 -0.95822270E-08 -0.78872831E-08
  0.51195464E-08  0.82495319E-08 -0.30606008E-08  0.25685855E-08 -0.18892687E-08
  0.97647173E-08 -0.40960308E-06 -0.36120418E-07  0.28671860E-08 -0.26952141E-07
  0.21209389E-07  0.15830124E-07  0.13504797E-07 -0.19158078E-08  0.21525013E-07
 -0.41327426E-06 -0.12163537E-07 -0.17603491E-07 -0.18343520E-08 -0.88642242E-09
  0.81198573E-08 -0.11200234E-07 -0.11450078E-07  0.26275528E-07 -0.35357509E-06
 -0.36988076E-07 -0.86786567E-08 -0.19072950E-07  0.10955693E-07 -0.17411089E-07
 -0.87254396E-08 -0.75976223E-09  0.24905291E-07 -0.24086478E-06 -0.36892950E-07
 -0.29912865E-08  0.22394910E-07  0.13609248E-07  0.26144198E-07 -0.13404099E-08
 -0.23168625E-07  0.19836562E-07 -0.39062357E-06  0.83508542E-07 -0.27242091E-07
 -0.10032591E-07  0.18077881E-07 -0.74356095E-08  0.31626341E-08 -0.46195803E-08
  0.23243979E-08 -0.45456952E-06 -0.26476589E-07 -0.66089814E-08  0.31423938E-07
  0.12555199E-07  0.10216658E-07 -0.14981956E-07 -0.16135177E-07 -0.47497711E-07
 -0.28720708E-06 -0.73182386E-07 -0.52657934E-08  0.18191440E-08  0.10892233E-07
 -0.16011500E-07  0.15633289E-07 -0.58026594E-08 -0.22030661E-07 -0.32252524E-06
  0.75377379E-07  0.19697107E-07 -0.85612864E-08 -0.53964302E-08 -0.37095452E-09
 -0.70216197E-09  0.37717345E-07 -0.14585693E-07 -0.26906640E-06 -0.75023428E-07
  0.12658882E-07  0.68203241E-08 -0.12770218E-07 -0.12075918E-07  0.60303725E-08
  0.40041528E-07  0.33167756E-08 -0.41401359E-06 -0.43088337E-07  0.76533997E-08
 -0.75613340E-08  0.13309285E-08 -0.16018768E-07 -0.48952036E-08  0.36050478E-07
  0.17679999E-05  0.21272617E-05  0.43752030E-05  0.66178076E-06 -0.14750813E-05
 -0.27653346E-05  0.29111022E-05  0.14691891E-05 -0.17048036E-05 -0.36034858E-08
  0.28435871E-05 -0.21158340E-06 -0.20644632E-06 -0.30819098E-06  0.59097066E-06
  0.83510547E-06 -0.11683332E-06  0.43761687E-05  0.24095596E-05 -0.33523340E-05
  0.10987893E-05 -0.28565336E-06 -0.40456390E-05  0.26636323E-06 -0.46856566E-06
 -0.21769147E-05  0.59319305E-06 -0.41673603E-06 -0.33387884E-06  0.15247104E-05
  0.67553833E-06 -0.14255768E-05 -0.30356231E-05 -0.18242399E-05 -0.16941535E-05
  0.56686369E-04  0.23666617E-05  0.26382187E-05 -0.13002801E-05 -0.27442937E-06
 -0.12979751E-05 -0.60595308E-06 -0.57477755E-06  0.37832231E-05  0.60568404E-05
  0.10932369E-05  0.41104031E-05  0.60343675E-05 -0.49984488E-06  0.42223149E-06
  0.16100113E-05  0.31366256E-06 -0.15593752E-05 -0.31252390E-07 -0.39636613E-07
  0.21594966E-05 -0.20546385E-05 -0.20336866E-06  0.74342767E-06 -0.70023694E-06
 -0.30260275E-05 -0.55875624E-06  0.65986157E-06 -0.87166231E-06 -0.32707232E-05
 -0.14389779E-05 -0.21497727E-05 -0.42234980E-06 -0.37539924E-06  0.53024132E-06
  0.11088862E-05  0.72835940E-06  0.40514193E-06 -0.35186398E-05  0.87248853E-06
 -0.11980820E-05  0.24102750E-05 -0.60177388E-06 -0.70080675E-06  0.91775281E-06
  0.64169432E-05  0.23141724E-05  0.20656816E-05 -0.39949509E-05  0.17524431E-05
 -0.28053172E-05  0.37441822E-06 -0.27133834E-05  0.64877292E-06  0.95449347E-06

  0.16915439E-08  0.13875406E-05  0.51475250E-09 -0.16960938E-07  0.18420740E-07
 -0.17068465E-07 -0.46147727E-07 -0.19303924E-07  0.24435143E-07 -0.53860797E-07
  0.13186057E-05 -0.10261649E-07 -0.51440844E-07 -0.12674630E-07  0.12337603E-07
  0.10259949E-07  0.15186791E-07  0.15021986E-08  0.19998597E-07  0.14511425E-05
  0.37381823E-08  0.36967529E-08 -0.67677868E-08 -0.20816569E-07  0.11019497E-07
 -0.12704532E-07  0.15668222E-07  0.10194844E-06  0.13970096E-05  0.38560085E-07
  0.34697571E-07  0.13653897E-08 -0.16888861E-07 -0.17799016E-07 -0.10609970E-07
 -0.89501670E-08  0.80475660E-07  0.15368696E-05 -0.48443140E-08 -0.38813726E-07
 -0.23167658E-07  0.55418916E-08  0.14197851E-07  0.55957065E-08 -0.90525651E-08
  0.11869598E-06  0.13623012E-05  0.66219768E-07  0.31609507E-07 -0.30674217E-08
  0.51944283E-08  0.34023248E-07 -0.23419681E-07 -0.10712029E-07  0.49363497E-07
  0.13806770E-05  0.38882288E-07 -0.48933417E-07  0.11531224E-07  0.54036180E-08
 -0.17115881E-07  0.27674349E-07 -0.64478702E-08  0.90379331E-07  0.13813069E-05
 -0.75277310E-08  0.45072315E-07  0.52243686E-08 -0.10770001E-07  0.36032610E-08
 -0.98270058E-08  0.17296159E-07  0.69779126E-07  0.13285530E-05 -0.46207100E-07
  0.27482810E-07 -0.30879520E-07  0.70891682E-08 -0.29927120E-08 -0.22743875E-08
 -0.13623192E-07  0.28270464E-07  0.13767092E-05  0.10999334E-06  0.60044281E-07
 -0.15606833E-07 -0.18505258E-07 -0.12433139E-07 -0.13264403E-07 -0.34873577E-07
  0.11507689E-06  0.14777206E-05  0.16077344E-07  0.53553935E-08 -0.28189969E-08
 -0.41040487E-08  0.11913014E-07  0.79800082E-08  0.57785874E-08 -0.13028350E-08
  0.14304677E-05 -0.30781017E-08 -0.68485957E-07  0.20973377E-07 -0.24856326E-07
 -0.41011796E-08  0.59084233E-08  0.11810099E-08 -0.28348797E-06  0.14841613E-05
  0.54404894E-07  0.47441107E-07 -0.10080515E-07  0.17799966E-08  0.15901800E-07
 -0.82100888E-08 -0.44673406E-07  0.12294054E-07  0.14270552E-05 -0.14376283E-08
 -0.56288950E-08 -0.21277659E-07 -0.53793059E-08 -0.18967675E-07 -0.11805032E-07
  0.10917474E-07  0.79541439E-07  0.13630642E-05  0.21604324E-07 -0.16281107E-07
  0.16460916E-07  0.16088806E-07  0.28577704E-07  0.56692503E-08 -0.51644073E-08
 -0.12962889E-04 -0.14708419E-05  0.68166986E-05  0.10402883E-04  0.68161587E-06
 -0.40976760E-05  0.15383204E-07 -0.14778823E-05 -0.19793842E-05  0.11678327E-04
 -0.69248531E-05 -0.26304173E-06 -0.63875056E-05 -0.44541525E-05  0.31142311E-05
  0.86631703E-05  0.21120875E-05 -0.13225966E-05  0.56033696E-05  0.11730698E-05
 -0.40567435E-06  0.88320289E-06 -0.89184183E-06  0.17880047E-05  0.70749588E-05
  0.68194614E-05  0.17779105E-05  0.43904426E-05  0.34289482E-05  0.30975775E-05
 -0.68837494E-05 -0.30186414E-05  0.15407646E-05 -0.30536757E-05  0.85037981E-05
  0.23666617E-05  0.11746791E-03 -0.16693131E-04 -0.21039166E-05 -0.10478456E-04
 -0.11465069E-05  0.13574309E-05  0.76463628E-05  0.25724628E-05 -0.39427549E-05
  0.74563932E-05  0.10472661E-05  0.48510122E-05  0.11361718E-04  0.11345017E-05
 -0.12619383E-05 -0.28805482E-06 -0.86197032E-06  0.10927970E-05 -0.29669918E-05
  0.76318165E-06 -0.78385081E-05  0.65722654E-06  0.71900331E-06 -0.27204563E-05
 -0.65209988E-05 -0.90184907E-05  0.57779903E-06  0.62324125E-05 -0.43361585E-05
 -0.52309791E-05 -0.54011671E-05  0.23018392E-05  0.13998646E-05 -0.90252534E-05
  0.68128876E-05  0.45528929E-06 -0.27260588E-05  0.35893541E-05  0.33298845E-05
  0.70348738E-05  0.28194767E-05 -0.32802290E-05 -0.33584332E-05 -0.63611388E-05
  0.45549331E-05  0.70832080E-05 -0.16800197E-05 -0.49869829E-05  0.11878775E-04
 -0.31829777E-05 -0.10734963E-05  0.15161039E-05  0.27769370E-05  0.85788988E-06

 -0.42148509E-07 -0.34247751E-05  0.47041469E-07 -0.37447914E-07  0.35736073E-08
  0.41514934E-08 -0.26244349E-08 -0.19835534E-08 -0.20084745E-08  0.91585721E-08
 -0.32358320E-05  0.80400902E-07 -0.36390470E-07  0.65524342E-08  0.73202632E-08
 -0.10463848E-07 -0.75817984E-08 -0.22575263E-07  0.25914332E-08 -0.32907351E-05
  0.10972439E-09  0.20187342E-07 -0.39759087E-07 -0.19548079E-08  0.31537018E-08
  0.23723615E-07 -0.32327481E-08  0.57587389E-07 -0.33004293E-05  0.18576888E-07
 -0.24570384E-07 -0.30453866E-07  0.10229116E-07  0.56284685E-08 -0.26910638E-07
  0.15889430E-07 -0.14159264E-07 -0.33059236E-05  0.74602071E-08 -0.36543775E-08
 -0.50945352E-08 -0.58291120E-08  0.12083234E-07 -0.18569670E-07 -0.21633815E-07
 -0.40799107E-07 -0.34385313E-05 -0.24833267E-07  0.25786977E-07 -0.15901328E-08
  0.45801734E-09 -0.93276576E-08  0.10619270E-07 -0.20310046E-07 -0.13647817E-06
 -0.33339771E-05 -0.20789005E-07 -0.15948956E-07  0.28137378E-07 -0.14601096E-07
  0.29620014E-07  0.17395739E-08 -0.95044813E-08  0.43666339E-07 -0.33615749E-05
  0.23541636E-07  0.37630569E-08  0.84415445E-08 -0.83300230E-08  0.61038919E-08
  0.66396585E-08 -0.30006916E-07  0.31185982E-07 -0.32725406E-05 -0.29960317E-07
 -0.10221964E-07  0.52561584E-07 -0.21006498E-07  0.90239664E-09 -0.13845105E-08
  0.82785907E-08  0.51260863E-07 -0.34278162E-05  0.44086795E-07  0.33473159E-08
 -0.16141472E-07 -0.22852063E-08 -0.18108892E-08 -0.81230814E-08 -0.12338130E-07
  0.82227430E-07 -0.35833951E-05  0.10948668E-07 -0.17052317E-07  0.16868065E-07
 -0.94293170E-08  0.30586545E-07  0.99093659E-08  0.53792020E-08 -0.60033695E-08
 -0.34828459E-05  0.38000339E-07  0.74939882E-08 -0.37422465E-08 -0.10932525E-07
 -0.58151425E-07  0.20153072E-08 -0.40426411E-07  0.12493478E-06 -0.35195595E-05
  0.11850897E-07 -0.35330660E-07  0.51467669E-07 -0.59637427E-08  0.37036284E-07
 -0.26354234E-07  0.52735103E-07  0.68136286E-08 -0.33676194E-05 -0.76420086E-07
  0.34038230E-08 -0.93569628E-07  0.22078050E-07  0.94156894E-08  0.17228972E-07
 -0.10531041E-08 -0.10027702E-07 -0.33182087E-05  0.56164218E-07 -0.59683872E-08
  0.28993687E-07 -0.15882986E-07  0.10765997E-07 -0.65516473E-08  0.47213806E-08
  0.16831507E-05 -0.17927023E-04 -0.22457601E-05 -0.14769107E-05  0.41832968E-05
  0.18303252E-05  0.37243693E-06  0.15930032E-05  0.19192296E-05 -0.86952028E-06
  0.80100746E-06  0.34112664E-05  0.84550767E-07  0.26810909E-05 -0.55075476E-06
 -0.13374102E-05  0.33560588E-05 -0.49583404E-05  0.16059581E-05 -0.22997271E-04
 -0.18116826E-05 -0.87132614E-06  0.24469384E-05 -0.30847671E-05 -0.20617570E-05
 -0.34775899E-05  0.54935458E-05 -0.44218380E-05 -0.16130509E-04 -0.10326826E-05
  0.68829919E-05 -0.43568694E-05 -0.26587040E-05  0.17726580E-05 -0.30779727E-05
  0.26382187E-05 -0.16693131E-04  0.12036437E-03 -0.15006965E-05 -0.23622280E-05
 -0.14318203E-04 -0.17095854E-05  0.63177004E-05 -0.76430136E-06  0.10311751E-05
 -0.32221350E-05  0.48645875E-05 -0.69353833E-05 -0.13420840E-05  0.10085561E-04
 -0.43367996E-06 -0.27355718E-05 -0.46222505E-06 -0.59046932E-05 -0.11996310E-06
  0.28718518E-05  0.46951778E-05 -0.81825002E-06 -0.19331534E-05 -0.35605543E-06
  0.71512184E-05  0.37704473E-05 -0.30241927E-05 -0.44368999E-05  0.67405614E-05
 -0.55222274E-06 -0.11722948E-05 -0.28265298E-05  0.10921282E-05  0.21196815E-07
 -0.22730567E-05  0.13709966E-05 -0.11380621E-04 -0.71009659E-05 -0.25374297E-05
  0.17298226E-05  0.14932752E-04 -0.56949141E-05 -0.31078735E-06  0.32760034E-05
  0.15001574E-06  0.51618609E-06 -0.20822841E-04  0.14621733E-05 -0.49776568E-07
  0.89258643E-05 -0.26711998E-05  0.85325494E-05 -0.18686780E-05  0.73507153E-05

  0.19645326E-07 -0.10447836E-06  0.88823567E-07 -0.35029447E-08 -0.71847489E-08
 -0.49343711E-09  0.16471618E-07 -0.72373957E-08  0.14208156E-07  0.24638650E-07
 -0.21917553E-06 -0.20877554E-07  0.26260788E-07 -0.97349273E-08 -0.29161641E-07
 -0.98561977E-08 -0.96780966E-08  0.25379212E-07 -0.15633281E-07 -0.12941944E-06
  0.46425416E-07 -0.16358074E-07 -0.12013953E-08  0.22490699E-07  0.88725703E-08
 -0.15030048E-07  0.21119780E-08  0.34623830E-07 -0.16700723E-06  0.12194022E-06
 -0.15460263E-08  0.90454685E-09 -0.12850602E-07  0.54412643E-08  0.12573668E-08
 -0.23605687E-07  0.32553905E-08 -0.20758328E-06  0.21057717E-07 -0.91705286E-08
  0.83098975E-08  0.23724825E-07 -0.15771301E-07 -0.10273123E-07 -0.11646642E-07
  0.70183573E-07 -0.15404809E-06 -0.13375701E-08 -0.11336023E-08 -0.52281868E-08
 -0.10756217E-07 -0.28663698E-08  0.30894450E-07  0.84577356E-08  0.11337003E-07
 -0.10805627E-06 -0.15508513E-06  0.58997523E-08 -0.44703006E-08  0.34809701E-07
 -0.48787512E-08  0.18912810E-08 -0.12455657E-07 -0.14614035E-07 -0.85180842E-07
  0.45076667E-07 -0.11574289E-07  0.13546362E-07 -0.17533056E-07  0.22444713E-07
  0.93159634E-08  0.14795500E-07 -0.10706068E-07 -0.10964577E-06  0.10916948E-06
 -0.54681247E-08  0.25048459E-07  0.15157547E-07 -0.43442984E-08  0.84109506E-08
  0.12969621E-07  0.56716236E-07 -0.13103279E-06 -0.87977318E-07 -0.16473544E-07
 -0.12673717E-08  0.10911301E-07 -0.14768703E-07  0.94898779E-08 -0.74964677E-08
  0.11536678E-08 -0.54180254E-07 -0.16756521E-07 -0.14282977E-07  0.89841800E-09
  0.27548942E-07  0.14848401E-07  0.10514674E-07  0.45030754E-08  0.21232141E-07
 -0.83827261E-07  0.93589822E-07  0.45813057E-08  0.16574426E-07 -0.56746992E-09
 -0.12384648E-07 -0.48613156E-07  0.20324658E-07  0.63650607E-07 -0.68971289E-07
  0.11322201E-07  0.31710421E-07 -0.12570164E-07 -0.35934955E-07 -0.26473505E-07
  0.11501541E-07  0.38125707E-08 -0.17872309E-07 -0.32714833E-07  0.58670543E-07
 -0.49008946E-08 -0.29659774E-07  0.19302718E-07  0.44994938E-08 -0.10573823E-07
 -0.58481995E-08  0.45594840E-07 -0.18402879E-06 -0.12690772E-06  0.48871678E-08
  0.34005182E-07 -0.37814965E-07 -0.29514980E-08  0.16459372E-07 -0.61281433E-08
  0.60096393E-05  0.77866184E-05 -0.27417278E-05 -0.47990738E-05  0.66322724E-05
  0.48483675E-05 -0.13409525E-05  0.13881105E-05 -0.49408403E-05  0.72991370E-06
 -0.30267678E-05  0.97824216E-05  0.51667561E-05  0.86092669E-06 -0.34016815E-05
 -0.18094209E-05  0.88005311E-06 -0.26731220E-05 -0.70192917E-06 -0.42512708E-05
 -0.56986876E-05  0.28744687E-05 -0.22273948E-06  0.17954435E-05  0.21497976E-05
  0.13402720E-05  0.46592684E-05  0.15373819E-05 -0.13579832E-05 -0.48810494E-05
  0.29747309E-05 -0.12807678E-05  0.42264695E-05  0.19117593E-05 -0.88623435E-06
 -0.13002801E-05 -0.21039166E-05 -0.15006965E-05  0.84768007E-04  0.20473292E-05
  0.19067319E-06 -0.76340911E-06 -0.40695889E-05 -0.16357332E-05  0.52023982E-05
  0.37781746E-05 -0.14810911E-05  0.50830996E-05 -0.94860605E-06  0.14017856E-07
  0.15545065E-05  0.69127698E-06  0.23801849E-05 -0.67173948E-06 -0.55574572E-05
  0.19569130E-05  0.23027245E-05 -0.54705097E-06  0.16612674E-05 -0.68573065E-05
 -0.76666588E-06 -0.18456053E-05 -0.55265718E-05 -0.53742265E-05 -0.18568073E-05
  0.10976046E-04  0.90948326E-06  0.87251231E-06  0.22305139E-05  0.75361450E-06
  0.95303233E-06  0.20821890E-05  0.44559221E-06  0.33719296E-05 -0.58801925E-05
 -0.11314760E-05 -0.37123720E-05 -0.75846452E-06  0.12787004E-05  0.14132717E-05
  0.15930580E-05 -0.40570494E-05  0.21985056E-05  0.20616790E-06  0.14212620E-05
 -0.16284488E-05  0.18085158E-05  0.99880462E-06  0.19984008E-05 -0.26562847E-05

 -0.90617261E-07 -0.57666298E-06  0.84256950E-07 -0.10218076E-07 -0.91612150E-08
  0.25204419E-07  0.61800244E-07 -0.93375515E-08  0.60939306E-09  0.28658991E-06
 -0.52641105E-06 -0.10397094E-07  0.25381223E-07  0.51328528E-07 -0.31254505E-07
 -0.61109221E-07 -0.42227023E-07  0.22277049E-07 -0.69277429E-07 -0.50874794E-06
  0.32498999E-07 -0.70355444E-08 -0.68576170E-08  0.16306163E-07  0.26497779E-07
  0.26775496E-07 -0.41361361E-08 -0.77057384E-07 -0.60204648E-06 -0.60272645E-07
  0.15057961E-06 -0.11274781E-07 -0.62541591E-08 -0.14832612E-07 -0.10785321E-07
 -0.28436521E-08 -0.27650344E-07 -0.66289501E-06 -0.54185316E-07 -0.26181916E-07
  0.10336683E-07  0.12402119E-07 -0.23811532E-07  0.32503522E-07 -0.19936908E-07
  0.13531770E-06 -0.48141032E-06 -0.12547900E-07 -0.67073531E-07 -0.10510576E-07
  0.97973137E-09  0.49004192E-07 -0.75505990E-08  0.78285636E-08  0.14096633E-06
 -0.62015424E-06  0.94592744E-07  0.11161269E-06 -0.21880654E-07 -0.15012079E-07
 -0.16612557E-08 -0.47295922E-08  0.22150820E-07  0.72824626E-07 -0.54352576E-06
 -0.12202165E-06 -0.28936810E-07  0.37206744E-07  0.21779506E-07  0.27964262E-08
  0.11785398E-07  0.12918139E-07 -0.16038350E-07 -0.57109544E-06  0.19580155E-07
 -0.35649265E-07 -0.54111663E-09  0.90499073E-08 -0.30864410E-08  0.52648129E-08
 -0.21163015E-08 -0.89809769E-07 -0.57094849E-06 -0.18554564E-07 -0.38062077E-07
  0.53775795E-07 -0.16585190E-08  0.14745996E-07 -0.27929191E-08  0.28260452E-07
  0.48745166E-07 -0.62711747E-06  0.40474692E-07 -0.30789338E-07  0.42535542E-07
  0.92411704E-08 -0.28026625E-07 -0.35319898E-07 -0.83657494E-08 -0.44166017E-07
 -0.48682570E-06  0.13127374E-06 -0.72335802E-07  0.13036810E-08  0.45794808E-07
  0.38665630E-07 -0.30857581E-07  0.17602265E-07  0.13177146E-07 -0.53441804E-06
 -0.10707023E-06  0.58268003E-07 -0.51130755E-07  0.24985836E-07  0.37128423E-07
  0.50000039E-07  0.16412195E-07 -0.28962695E-07 -0.46090752E-06 -0.88415749E-08
  0.50316468E-07 -0.25405447E-07  0.23163589E-07 -0.26989355E-07  0.46644095E-08
 -0.14471259E-07 -0.14763802E-06 -0.57140561E-06  0.17544142E-08  0.23152318E-07
  0.20549138E-07 -0.10321089E-07 -0.40350752E-07  0.37167567E-07  0.12451228E-07
 -0.39975966E-06  0.19162041E-06  0.67202792E-07 -0.14601067E-04  0.45715145E-05
  0.20608491E-05  0.64954737E-05 -0.27165068E-05 -0.77377575E-05  0.56257977E-06
  0.54702693E-05  0.20582642E-05 -0.32754205E-05 -0.53243920E-05  0.19037852E-05
  0.71009038E-05  0.56618640E-05  0.18771817E-06 -0.16522147E-04  0.48797626E-05
  0.87074977E-06 -0.15765150E-04 -0.19025589E-05  0.31401878E-05  0.43739787E-05
 -0.23069336E-05  0.23680027E-06 -0.26668401E-05  0.41323253E-05 -0.49389662E-05
  0.14772534E-05  0.16725204E-05 -0.20244613E-05 -0.20134345E-05 -0.25243831E-05
 -0.27442937E-06 -0.10478456E-04 -0.23622280E-05  0.20473292E-05  0.15327063E-03
 -0.23432503E-04 -0.30781619E-04 -0.35377773E-04 -0.34830188E-06  0.36701895E-05
 -0.76556569E-05 -0.53281055E-05  0.17409501E-05 -0.16248195E-04  0.10070404E-05
  0.19276398E-05 -0.19693421E-05 -0.23403872E-05 -0.24821295E-05  0.68598540E-05
 -0.10164396E-05  0.83422357E-06  0.31114901E-05 -0.28999260E-05 -0.16750503E-05
  0.31431128E-05  0.72958502E-05 -0.30772232E-05 -0.10365621E-04 -0.11770377E-05
 -0.58719024E-06 -0.15003321E-04  0.35822678E-05  0.39022140E-05  0.36094927E-05
 -0.38657049E-05 -0.43465898E-07  0.33864415E-05  0.30851419E-05  0.12461967E-05
  0.41369359E-05  0.89084805E-06 -0.20791299E-05  0.39240182E-05  0.48856306E-06
 -0.47294061E-05  0.84937082E-05  0.46926335E-06 -0.12836264E-05 -0.16835256E-04
 -0.71634679E-06  0.98290063E-06  0.25260585E-05 -0.12106837E-05 -0.13583245E-05

 -0.54269755E-07  0.49632067E-06 -0.38576807E-07  0.23373385E-07  0.64050891E-07
 -0.22462572E-07 -0.29305166E-07  0.40627398E-08 -0.18466700E-07 -0.24273415E-07
  0.47968592E-06  0.11386187E-07  0.36796307E-07 -0.83418061E-07  0.11476164E-07
  0.59269094E-08  0.83494568E-08 -0.10337702E-07  0.17018650E-08  0.32127899E-06
 -0.37481502E-07 -0.98649681E-08  0.13730181E-07  0.13385343E-07 -0.21852787E-07
 -0.10764176E-07 -0.49327390E-08  0.32381729E-08  0.24686445E-06 -0.91439046E-08
 -0.73019215E-08 -0.29167936E-07  0.25817258E-07 -0.31623381E-07  0.13742072E-07
 -0.12345223E-07  0.53117524E-08  0.24482692E-06  0.21966846E-07 -0.80368355E-08
  0.61764430E-07 -0.24031995E-07 -0.24651519E-07 -0.34029674E-08 -0.62267306E-08
  0.94112888E-09  0.43188886E-06 -0.17950279E-07 -0.77068367E-08  0.82446102E-07
 -0.10333127E-07 -0.18034222E-07 -0.11767837E-07 -0.14515580E-07  0.21749515E-07
  0.33061008E-06 -0.42551702E-07  0.94747537E-09 -0.23601882E-07  0.57975905E-08
  0.28887947E-07  0.28459039E-09  0.63472400E-08 -0.70894963E-07  0.26366472E-06
  0.40638632E-09  0.14409569E-07 -0.43003041E-07  0.18218970E-07 -0.53693037E-09
 -0.15685217E-07 -0.22189655E-08  0.18722211E-07  0.40965802E-06  0.16489726E-07
  0.88688311E-08 -0.11773947E-07  0.17319817E-07 -0.17105742E-07  0.70681279E-08
  0.12443810E-07 -0.44777581E-08  0.34503627E-06  0.24735696E-07  0.54293756E-07
 -0.78024593E-07 -0.14848247E-07 -0.79247410E-08 -0.55763022E-09 -0.10340015E-07
  0.37644095E-07  0.18473990E-06 -0.41769588E-07  0.37706204E-07 -0.34015581E-07
  0.25373843E-07 -0.49758669E-07  0.17540060E-07  0.19720450E-07 -0.47182503E-08
  0.39168877E-06  0.10795264E-07 -0.25271692E-08  0.11707860E-07 -0.34108804E-08
  0.20656076E-07  0.98435061E-08 -0.40756578E-09 -0.23542052E-07  0.11036980E-06
  0.76353221E-07 -0.13936491E-07  0.24828446E-07 -0.60016737E-08 -0.38418882E-08
 -0.18104341E-07 -0.13123914E-07  0.74950507E-07  0.25110690E-06  0.74685549E-07
 -0.21196688E-07  0.50485028E-07 -0.13222539E-07 -0.92467727E-08  0.59690614E-08
  0.31597096E-07  0.31198390E-07  0.43145593E-06  0.44900707E-07 -0.12411403E-07
  0.39990825E-07 -0.37043925E-08 -0.37086956E-08  0.76546808E-08 -0.51893122E-07
  0.28692881E-05 -0.28928310E-05  0.38654347E-05  0.45032705E-05 -0.46644919E-05
 -0.47857055E-05  0.35556397E-06  0.30885566E-05  0.39627170E-07  0.16850392E-05
 -0.14273729E-04 -0.38907257E-05  0.82478411E-06  0.11056155E-04 -0.40514931E-05
 -0.94778408E-06  0.23753810E-06 -0.28830446E-05 -0.64889033E-06  0.66881691E-05
 -0.16746449E-05  0.14387124E-05  0.32542418E-05 -0.17258466E-05 -0.35440815E-06
  0.11120265E-06 -0.39562338E-05 -0.29503227E-05  0.34694737E-06 -0.15987942E-05
 -0.13206458E-05  0.12047944E-04 -0.13386042E-05 -0.13672237E-05 -0.64897548E-06
 -0.12979751E-05 -0.11465069E-05 -0.14318203E-04  0.19067319E-06 -0.23432503E-04
  0.97450209E-04 -0.19433000E-04 -0.19032017E-04 -0.27918897E-05 -0.29072157E-05
 -0.52284238E-06  0.89406967E-05 -0.10020052E-05 -0.14649401E-05  0.15961134E-04
 -0.35480470E-05  0.20288193E-05 -0.14337383E-05  0.60463142E-05 -0.50855070E-05
 -0.11060012E-05 -0.57958032E-05 -0.83688667E-06  0.24577771E-05  0.16496490E-05
  0.40134274E-06  0.46344408E-06 -0.35355218E-05  0.28875657E-05 -0.38678597E-05
 -0.48487297E-06  0.65860623E-05 -0.92558143E-05  0.31917728E-06  0.15466790E-05
  0.14454702E-05  0.44817867E-07 -0.17870477E-06  0.84507660E-05  0.19668178E-05
  0.16112476E-05 -0.14732874E-04  0.19804943E-05  0.38409460E-05 -0.14022980E-05
  0.10438682E-05  0.34047120E-05  0.70928488E-05  0.20866376E-05 -0.16065303E-05
  0.57185083E-05  0.35642042E-07 -0.91077899E-06  0.22944074E-05 -0.17322144E-05

  0.61324208E-07  0.47465354E-06  0.22959821E-07 -0.34918593E-08 -0.98952527E-08
 -0.20279897E-08 -0.64661756E-08 -0.39932365E-08  0.17040023E-08 -0.36216261E-07
  0.49895788E-06 -0.47597795E-07 -0.24261238E-07  0.10728525E-07  0.49481298E-07
  0.26893769E-07 -0.78637446E-08 -0.23287117E-07  0.33964045E-07  0.52075811E-06
 -0.36728918E-07  0.28541911E-07  0.65665125E-08 -0.34378265E-07 -0.12438621E-07
 -0.75579828E-08  0.12383440E-07  0.57094749E-08  0.47559168E-06 -0.31611905E-07
 -0.13539041E-07  0.28908507E-07 -0.37540858E-07 -0.77507647E-08 -0.20308237E-07
  0.18285698E-07 -0.24374315E-08  0.52145251E-06 -0.34535349E-07  0.15443524E-07
 -0.27845985E-07  0.44495139E-07  0.13180565E-07 -0.16926802E-07 -0.13790976E-07
 -0.34908999E-07  0.46995252E-06 -0.83679115E-08  0.21654782E-09 -0.61076314E-08
  0.34582488E-07 -0.62542954E-08  0.23169903E-07  0.13383947E-07  0.10182236E-06
  0.47111339E-06 -0.11115643E-07 -0.35993416E-07  0.20479039E-07  0.30208292E-07
  0.13812268E-07  0.26065179E-07 -0.53521979E-08 -0.41393297E-08  0.45357632E-06
  0.11319447E-06  0.12755977E-07  0.15458449E-07 -0.37367375E-07 -0.92651421E-08
  0.15509417E-07 -0.55108145E-08 -0.23066646E-07  0.50687587E-06  0.68329215E-08
  0.15964175E-07  0.38739538E-07 -0.26336694E-07 -0.89961753E-08  0.20229778E-08
  0.28815611E-08  0.64228789E-07  0.46492980E-06 -0.13367668E-06  0.11667584E-08
 -0.15008735E-07  0.11545169E-07  0.29803826E-08 -0.83332452E-08 -0.95440451E-08
  0.27316036E-07  0.54558485E-06  0.67561038E-07 -0.90759045E-09  0.27952755E-07
 -0.15017714E-07  0.43923486E-08 -0.15230915E-07  0.53510025E-08  0.48982754E-07
  0.47487969E-06 -0.10773160E-06  0.32583936E-07  0.23325510E-08 -0.25764205E-07
 -0.76455168E-08 -0.23943259E-08 -0.94260562E-08  0.28861294E-07  0.60222411E-06
  0.55576075E-07  0.45092991E-07 -0.16442534E-07 -0.23219042E-07 -0.37815095E-07
 -0.20239280E-07 -0.32579070E-07 -0.58578259E-07  0.54680889E-06  0.93950266E-07
  0.16069737E-07 -0.30183971E-07  0.69809361E-08  0.41579686E-08 -0.39339259E-08
  0.17096536E-07 -0.52187004E-08  0.46437371E-06 -0.69751032E-07  0.15525562E-08
 -0.19478644E-07  0.58685915E-07  0.57406064E-08 -0.18724897E-07 -0.17160094E-07
 -0.27940616E-05  0.83401561E-06 -0.68982630E-05  0.67603767E-06 -0.15790713E-05
  0.45844920E-05 -0.11494423E-05 -0.51429036E-05  0.46286150E-05  0.84499277E-07
  0.71112201E-06  0.25153788E-05  0.29140227E-05 -0.19014725E-05 -0.92002141E-07
 -0.14857411E-05 -0.32837809E-05 -0.71326038E-06 -0.12522233E-06 -0.41341941E-05
 -0.37622755E-06  0.56627999E-06 -0.14797065E-05 -0.28535994E-05  0.10248013E-05
  0.38885522E-06  0.42865389E-06  0.12491102E-05 -0.16092107E-06  0.28111905E-05
 -0.35432388E-05 -0.12450208E-05  0.41573390E-05  0.32912621E-05  0.69754070E-06
 -0.60595308E-06  0.13574309E-05 -0.17095854E-05 -0.76340911E-06 -0.30781619E-04
 -0.19433000E-04  0.88563596E-04  0.50564311E-05  0.10595020E-04 -0.57125231E-05
 -0.54223470E-06 -0.10947274E-05 -0.46529184E-05  0.30369425E-05 -0.36048387E-05
 -0.29243851E-06 -0.69280455E-06 -0.26542534E-05  0.53246753E-05  0.11517267E-05
  0.74764144E-06  0.73079302E-05 -0.21903736E-05  0.10026757E-05  0.25377993E-05
  0.11897188E-05 -0.92148158E-06  0.55993773E-06  0.11776703E-05  0.55407769E-06
  0.31129691E-05  0.51798804E-05  0.28728680E-06 -0.14120369E-05 -0.86069814E-06
 -0.12446758E-05  0.21132587E-05  0.24952884E-05 -0.42035725E-05  0.47262641E-05
 -0.34886011E-05  0.28582345E-06  0.38732336E-05  0.82796282E-06 -0.39722729E-05
  0.54683813E-07 -0.42500771E-05  0.96441077E-06  0.93988663E-05  0.39539725E-05
 -0.29414322E-05  0.73013687E-05 -0.29249137E-05 -0.71297628E-06  0.13914552E-05

 -0.45398319E-07 -0.49992247E-06 -0.55671792E-09  0.14535967E-08 -0.10424549E-07
 -0.10503935E-07  0.20551688E-07 -0.15534626E-07  0.12485154E-07 -0.13578962E-06
 -0.55119800E-06 -0.29706667E-07 -0.35485088E-07  0.32843386E-07  0.15104399E-07
 -0.35007524E-09 -0.73657124E-08 -0.26855340E-08  0.15505574E-07 -0.45295186E-06
 -0.23235148E-07 -0.28216348E-07 -0.25811252E-07  0.18087630E-07 -0.99828957E-09
  0.10996335E-07  0.40229148E-08  0.30233188E-07 -0.46757344E-06 -0.81719593E-07
 -0.13653843E-07  0.36617184E-07 -0.15277134E-07  0.29807189E-08 -0.31379325E-07
  0.13395585E-07 -0.10863152E-07 -0.41761498E-06  0.15115098E-07  0.97449778E-08
 -0.33770642E-07 -0.23110594E-08  0.41391150E-07  0.38613588E-07 -0.35568181E-07
  0.45867378E-07 -0.58662403E-06  0.29319246E-08  0.30484068E-07  0.24736933E-07
  0.73214288E-08 -0.44074881E-07  0.27447187E-07 -0.55532561E-08 -0.13604954E-06
 -0.44540415E-06 -0.23680627E-07 -0.19021237E-07  0.11821373E-07 -0.61941450E-08
  0.14717360E-08 -0.25397547E-08 -0.15387245E-07  0.45111738E-07 -0.46934099E-06
  0.50134192E-07  0.41753853E-07 -0.30353687E-07 -0.15402685E-07 -0.78393732E-08
 -0.17166967E-07 -0.20642654E-07 -0.32097144E-07 -0.63535683E-06 -0.60657644E-07
 -0.21564463E-07  0.24046734E-07  0.11901899E-07 -0.54921301E-08  0.15331681E-07
 -0.21421872E-07 -0.67133147E-07 -0.62052410E-06 -0.37931238E-07  0.71641242E-08
  0.30605837E-07  0.13605594E-07 -0.39266576E-08 -0.88047579E-09 -0.32894288E-08
 -0.29448848E-07 -0.39671402E-06  0.94156987E-08 -0.41756998E-07 -0.24601909E-07
 -0.14762847E-08  0.15007010E-07 -0.35476779E-08  0.35407877E-09 -0.63677182E-08
 -0.68181194E-06 -0.10153397E-06  0.74188164E-08 -0.37540479E-07  0.11718593E-07
  0.72337332E-07 -0.15627247E-07 -0.37195918E-08  0.13963914E-06 -0.50658526E-06
  0.57585048E-07 -0.58313749E-07  0.55824529E-07 -0.16460062E-07 -0.18943401E-07
 -0.80450468E-08 -0.46256763E-07 -0.20519991E-07 -0.67030583E-06 -0.41586200E-07
  0.34804858E-07  0.18336835E-07 -0.12980727E-07  0.38066512E-07 -0.21984712E-07
  0.20413061E-07  0.34264925E-07 -0.55763036E-06  0.28638726E-07  0.28866053E-07
 -0.12084634E-07  0.16014391E-07  0.20064998E-07 -0.22400860E-07 -0.80547257E-08
 -0.21394771E-05  0.99161372E-05 -0.63751020E-06  0.13259857E-05 -0.42712674E-05
  0.37710781E-05 -0.37290794E-05 -0.43425501E-05  0.66755262E-05  0.34395202E-05
 -0.36028500E-05  0.57639160E-06  0.41322730E-05  0.43092897E-05 -0.18483653E-06
  0.64144584E-07 -0.11358644E-05 -0.17175904E-05  0.79469768E-05  0.19791536E-05
  0.19349335E-05  0.38737315E-05  0.25496936E-06 -0.99233124E-06  0.29402875E-05
  0.28599701E-05  0.23727167E-05 -0.13723226E-05 -0.50310667E-05  0.27433777E-05
  0.24131979E-05 -0.36710889E-05 -0.81590900E-06  0.61965157E-05  0.20871419E-05
 -0.57477755E-06  0.76463628E-05  0.63177004E-05 -0.40695889E-05 -0.35377773E-04
 -0.19032017E-04  0.50564311E-05  0.11160746E-03 -0.26149732E-05 -0.48090869E-05
  0.16724491E-05  0.26417490E-05 -0.25258524E-05  0.82747290E-05 -0.98027676E-05
  0.19874493E-05 -0.47630050E-06  0.25080364E-05 -0.79053825E-06 -0.44421127E-05
 -0.43015799E-05 -0.42475563E-06 -0.23103772E-05  0.51478458E-05 -0.11390872E-06
  0.46524362E-05 -0.13880461E-05  0.50964051E-05 -0.68728378E-07 -0.79037646E-06
 -0.27159027E-05 -0.42062884E-05  0.62540083E-06  0.15453596E-05 -0.68661060E-05
  0.36694509E-05  0.23605592E-05 -0.36327285E-05  0.22111488E-05 -0.46402791E-06
 -0.32346316E-05  0.73606652E-05 -0.14006392E-05  0.42977928E-06 -0.97853933E-06
 -0.74542883E-06  0.57479425E-05 -0.13804577E-05  0.32418497E-05  0.59158346E-05
 -0.61661746E-06  0.50363755E-06  0.40915994E-05 -0.10233031E-06  0.24691263E-05

  0.10693758E-06 -0.43027741E-06  0.27165856E-07 -0.26330427E-07  0.18924111E-07
 -0.54181538E-08 -0.90208478E-08 -0.17102682E-07  0.13783696E-07 -0.74802391E-07
 -0.44679661E-06  0.10107613E-07 -0.59070117E-07  0.10957891E-07  0.11042777E-08
  0.84421759E-08  0.25332374E-08 -0.57424754E-09  0.55315397E-09 -0.36453832E-06
 -0.40128463E-08  0.55435129E-07 -0.21456633E-07 -0.14719209E-07  0.50166995E-08
 -0.22267322E-07 -0.11610304E-07 -0.98246069E-07 -0.41810726E-06 -0.33535168E-07
 -0.76010741E-08  0.71973376E-09 -0.38622382E-07 -0.78882470E-09  0.25608632E-07
 -0.26137555E-07 -0.77066190E-07 -0.33974215E-06 -0.43364406E-07  0.15719963E-07
 -0.59406747E-08 -0.20941359E-07 -0.23567660E-07 -0.13219925E-08  0.49753026E-08
 -0.53627368E-08 -0.41515319E-06  0.13575727E-07  0.75792123E-08  0.17498401E-09
  0.20082365E-07  0.17594985E-07 -0.52348275E-08  0.13781025E-08  0.67907978E-07
 -0.40590726E-06  0.16853699E-06 -0.13589674E-07 -0.45715612E-08  0.23470715E-07
  0.18834251E-07  0.35426895E-08  0.13691410E-07 -0.96028959E-07 -0.40410322E-06
 -0.96698046E-08  0.96158146E-08 -0.19463809E-07  0.19956080E-07  0.12905534E-08
 -0.71853788E-08 -0.13660691E-07  0.14498335E-07 -0.35369811E-06 -0.38447480E-07
  0.54229612E-08  0.13178185E-07 -0.12074359E-07  0.71486498E-08 -0.74002537E-08
 -0.20245366E-07 -0.10534556E-06 -0.40404013E-06  0.68022745E-07 -0.65518462E-08
 -0.35545359E-08 -0.16055452E-07  0.71303361E-08 -0.89413898E-08 -0.98168880E-08
  0.11562375E-06 -0.39539886E-06  0.61191925E-07 -0.44324390E-07  0.25662924E-07
 -0.18438569E-07  0.31385859E-08 -0.96614398E-08  0.95558906E-09  0.99327822E-07
 -0.37686158E-06 -0.82258253E-09 -0.44709467E-07  0.49365273E-08 -0.97689725E-08
 -0.14813597E-08 -0.24273735E-08  0.17808985E-07 -0.29438678E-07 -0.20656123E-06
  0.47060203E-07  0.74612399E-07 -0.52640989E-07 -0.15391739E-07 -0.87217092E-08
  0.16595058E-07 -0.33707611E-07  0.70050802E-07 -0.33003716E-06 -0.74551301E-07
  0.11717415E-07 -0.18113782E-07 -0.14082326E-07  0.15165739E-07  0.19348715E-07
 -0.60274823E-08  0.73150262E-08 -0.41660769E-06 -0.26857559E-07  0.85982491E-08
  0.10500770E-07 -0.51680887E-09 -0.21024392E-07  0.29412021E-07 -0.56289700E-08
 -0.19536570E-05  0.55728470E-05 -0.21870853E-05 -0.58219374E-05  0.71177155E-05
 -0.57780858E-05 -0.43973454E-05 -0.31073372E-05  0.24832604E-05 -0.20252395E-05
  0.62227641E-05 -0.85978862E-06  0.71046288E-05 -0.15629366E-05 -0.33086423E-05
 -0.16875207E-05  0.24164358E-05  0.10053424E-05  0.18666656E-05 -0.39737909E-05
 -0.63282456E-05 -0.17351777E-05  0.13117775E-05  0.30915741E-06 -0.14944470E-06
 -0.58826847E-05  0.16532395E-05 -0.57047881E-05 -0.25420106E-05  0.49929322E-06
  0.50873976E-06  0.11706237E-05  0.11220793E-05  0.20036016E-06 -0.29213167E-06
  0.37832231E-05  0.25724628E-05 -0.76430136E-06 -0.16357332E-05 -0.34830188E-06
 -0.27918897E-05  0.10595020E-04 -0.26149732E-05  0.72602539E-04 -0.13255395E-04
 -0.74007396E-06  0.17678010E-05 -0.39687619E-05 -0.46686133E-05 -0.13221312E-05
 -0.12385618E-05  0.29036732E-05 -0.20867475E-05 -0.31545497E-06  0.97895515E-07
  0.46325978E-05  0.20854515E-05  0.57764462E-05  0.17917927E-06 -0.43872650E-08
 -0.41029155E-05 -0.15295888E-05  0.42922686E-05 -0.30173562E-05 -0.61762175E-05
 -0.48636564E-05 -0.26655373E-05  0.14571060E-05 -0.66986614E-06  0.26011234E-05
  0.35182641E-05  0.69646455E-06  0.48120071E-05 -0.38826281E-06  0.38426327E-05
  0.38671132E-06 -0.91591019E-06 -0.53820432E-05 -0.45328226E-05 -0.13897560E-05
  0.52842037E-05  0.49741933E-05  0.13564035E-05 -0.93827687E-06  0.33554125E-06
  0.11802587E-05 -0.45361181E-06 -0.65717125E-06  0.13894359E-05  0.12772792E-05

 -0.86765596E-09 -0.43040675E-06 -0.71340488E-09  0.30677742E-07 -0.47872073E-07
 -0.16523559E-07  0.11489969E-07 -0.90796181E-08  0.92974236E-08 -0.74341768E-09
 -0.37283641E-06  0.11748125E-06  0.21292268E-07 -0.13409911E-07 -0.11767275E-07
 -0.89105294E-08  0.66665665E-08  0.24250786E-07 -0.22146094E-07 -0.31522233E-06
  0.35847905E-07 -0.55429118E-08  0.21740408E-07  0.87278257E-08 -0.39528709E-08
  0.52117782E-08 -0.12791378E-07 -0.66237963E-07 -0.25978018E-06  0.10226131E-06
 -0.10585257E-07  0.54426750E-08  0.30085838E-08  0.44579255E-08 -0.24322490E-08
 -0.10019581E-07 -0.51422872E-08 -0.36673502E-06 -0.36334119E-07 -0.15386464E-08
  0.37235410E-07  0.30517990E-07 -0.24857510E-07 -0.68550689E-08  0.40359976E-07
 -0.83958930E-08 -0.44647864E-06  0.16163325E-08  0.27053666E-07  0.18959185E-08
 -0.32472202E-08  0.74886466E-08  0.19836947E-07 -0.38550527E-07 -0.68235092E-08
 -0.31224859E-06 -0.18083465E-07  0.81160509E-08  0.19758222E-08 -0.69590852E-09
 -0.80440575E-08 -0.13035335E-07  0.13498962E-07  0.22672522E-07 -0.37183857E-06
  0.21679149E-07 -0.23318540E-08 -0.14399294E-07  0.27837361E-08 -0.15432903E-07
 -0.56356551E-08 -0.27749302E-08 -0.31257925E-07 -0.36577019E-06 -0.12639867E-07
  0.38078088E-08  0.93838304E-08  0.91722094E-08 -0.12153831E-07  0.16985773E-07
  0.21241193E-07 -0.47836202E-07 -0.40580853E-06 -0.40973086E-08 -0.16019033E-07
  0.11038513E-08  0.28085962E-07  0.15227587E-08  0.11737152E-07 -0.90765320E-08
 -0.40776381E-07 -0.39923251E-06 -0.89454075E-08  0.13817422E-07 -0.17782638E-07
 -0.11077348E-07  0.10693709E-07 -0.97668519E-08 -0.49738884E-08 -0.49599217E-07
 -0.32980089E-06  0.26938691E-07  0.20808022E-08 -0.10667720E-07 -0.53972584E-08
  0.74943605E-09 -0.74671785E-08  0.19986570E-07  0.73392326E-07 -0.49783373E-06
  0.10412889E-06 -0.21448734E-08  0.61420867E-07 -0.41740834E-07 -0.46983121E-07
 -0.17141235E-07 -0.29136132E-07 -0.23374678E-07 -0.41390991E-06 -0.33643861E-08
 -0.77350405E-08 -0.64267445E-08 -0.81362016E-08  0.14912407E-07 -0.70523404E-08
 -0.17116865E-07  0.15237734E-07 -0.37882107E-06 -0.96979206E-08 -0.34767040E-08
  0.27657646E-07 -0.13120017E-07 -0.16534859E-07  0.20243402E-07  0.13809077E-07
  0.34134073E-07  0.79465524E-06 -0.64279555E-05 -0.40804961E-06 -0.17948141E-05
  0.91267968E-06  0.49677565E-05  0.23117540E-05 -0.45087812E-05  0.69529485E-06
 -0.29809914E-05 -0.99574605E-07 -0.14411018E-05  0.81421410E-06  0.29087932E-05
 -0.27108815E-05  0.38520809E-05 -0.55335118E-06 -0.53159639E-06  0.55570421E-05
  0.48707010E-05  0.48866875E-06  0.49616289E-05 -0.47150894E-07  0.11698652E-06
 -0.12228767E-05  0.23234028E-05  0.27259540E-05  0.73153272E-06 -0.76459593E-06
  0.29202259E-05 -0.47444618E-05 -0.14954902E-05 -0.27330086E-07 -0.83446999E-06
  0.60568404E-05 -0.39427549E-05  0.10311751E-05  0.52023982E-05  0.36701895E-05
 -0.29072157E-05 -0.57125231E-05 -0.48090869E-05 -0.13255395E-04  0.67985586E-04
 -0.91798520E-06 -0.19014859E-05  0.44697050E-05 -0.23431346E-06  0.11679225E-05
  0.95446447E-06  0.10688617E-05  0.29929791E-05  0.24223211E-05  0.12995856E-05
  0.75383914E-06 -0.11214623E-05 -0.11416646E-05  0.10594379E-05 -0.12379108E-06
  0.29403133E-05  0.14527683E-05  0.12805513E-05 -0.28822346E-05  0.58188102E-05
  0.47057034E-05  0.78074520E-06  0.22995668E-05  0.10788305E-06  0.12159958E-05
 -0.54162109E-06 -0.30038870E-06 -0.10982129E-05 -0.20521173E-05 -0.25120280E-05
  0.10385035E-06  0.72992863E-06  0.26355993E-05 -0.84930012E-06  0.11082431E-05
 -0.22350770E-05  0.28197089E-05 -0.20857366E-05 -0.96969264E-06 -0.63688261E-06
  0.35905954E-05 -0.25036973E-05  0.20232628E-05  0.27617132E-05 -0.26063243E-05

  0.10808327E-06  0.12985893E-06  0.76716207E-09 -0.94777338E-08  0.93139034E-08
  0.82515206E-08 -0.35464476E-07 -0.16420146E-07  0.19700283E-07  0.16645389E-07
  0.85358616E-07  0.61712219E-07 -0.30522467E-07 -0.11393967E-07  0.23112704E-07
 -0.26524634E-08 -0.32320643E-07  0.36047646E-08 -0.18776627E-07  0.10761593E-06
 -0.14222838E-08  0.33805464E-07 -0.10377817E-07 -0.32916285E-08  0.36356957E-07
  0.26445725E-07  0.14975783E-08  0.84326652E-07  0.24302423E-06  0.14107453E-06
 -0.14205690E-07 -0.74498757E-08 -0.21017692E-08  0.28580859E-07  0.83782017E-08
 -0.16276010E-10  0.86634890E-09  0.22105926E-06  0.28758768E-07 -0.38010567E-07
  0.18972619E-07  0.11131994E-07  0.54207945E-08  0.24921983E-07  0.97222817E-08
  0.76443181E-08  0.16538698E-06 -0.54702132E-07 -0.33073924E-07 -0.21543312E-07
  0.11476753E-07  0.23756734E-07 -0.94377142E-08  0.38437444E-08 -0.15646035E-06
  0.14017637E-06 -0.39079552E-07 -0.33787306E-08  0.26114196E-07 -0.14052154E-07
 -0.25324277E-07  0.96423170E-08  0.82106978E-08 -0.15599420E-06  0.18682502E-06
 -0.17698887E-07  0.63423083E-07 -0.34600474E-08 -0.10603306E-07 -0.11092189E-07
  0.40989511E-08  0.92808332E-08  0.11528392E-08  0.10652492E-06  0.12376952E-07
 -0.65516328E-08 -0.15799478E-07  0.25655936E-07  0.13692789E-07  0.52059913E-08
 -0.41335576E-10  0.41024078E-07  0.18773790E-06 -0.71443293E-07 -0.11940429E-07
  0.19191549E-07 -0.10221240E-07  0.64143854E-08 -0.24022231E-07 -0.89673998E-08
  0.63316841E-07  0.16121562E-06 -0.23317707E-07 -0.28448380E-07 -0.15532729E-07
  0.70647312E-08  0.85748156E-08  0.41606404E-07  0.11885968E-08  0.72197543E-07
  0.15891086E-06  0.18260339E-07  0.52151372E-07  0.95199325E-08 -0.18897833E-07
 -0.29541070E-07 -0.24607939E-07 -0.15751385E-07 -0.72078002E-07  0.17523640E-06
 -0.93970460E-07 -0.27181392E-07 -0.13971931E-07  0.62071151E-08  0.12722800E-07
 -0.69802339E-07  0.14069879E-07  0.17510699E-06  0.15763891E-07 -0.46833534E-07
 -0.12200367E-06  0.57872351E-07 -0.76783976E-08 -0.78054872E-08 -0.24732672E-08
 -0.19662315E-07  0.26475608E-07  0.83331752E-07 -0.34796178E-07  0.68446195E-07
 -0.16611469E-07 -0.55630910E-08 -0.50970267E-07  0.47299508E-07  0.13935869E-07
 -0.24686865E-05 -0.55878849E-05 -0.63688045E-05  0.18753748E-05 -0.21370680E-05
  0.22871793E-05 -0.10083951E-06 -0.56330180E-05 -0.13375747E-05  0.45980887E-05
 -0.46952735E-05  0.56322881E-06 -0.59458422E-05 -0.18422250E-06  0.59138073E-06
  0.33831177E-05  0.16215908E-05  0.47514212E-07  0.11210430E-04 -0.17707732E-05
  0.41796237E-05  0.59799739E-05  0.14403982E-05 -0.13469591E-05 -0.61598626E-05
  0.82762214E-06  0.69554203E-07  0.47981745E-05 -0.37822406E-05  0.20606667E-05
 -0.15908845E-05 -0.31986974E-05  0.14658495E-05  0.71617011E-05  0.14814442E-05
  0.10932369E-05  0.74563932E-05 -0.32221350E-05  0.37781746E-05 -0.76556569E-05
 -0.52284238E-06 -0.54223470E-06  0.16724491E-05 -0.74007396E-06 -0.91798520E-06
  0.10604926E-03  0.38554081E-05  0.66253534E-05 -0.60329570E-05 -0.26114070E-06
  0.11412318E-05 -0.37973193E-05  0.32886416E-05 -0.23506381E-05 -0.40899857E-05
  0.40751106E-05  0.11273556E-04  0.10527761E-04 -0.33039271E-06 -0.28470330E-05
 -0.16897847E-05 -0.63051802E-06 -0.34424666E-06 -0.57888210E-05  0.17497042E-05
  0.44312069E-05 -0.76293879E-05  0.57475768E-05 -0.18870448E-05 -0.21491817E-05
 -0.66073380E-05  0.66028578E-06  0.29402017E-05  0.34746411E-05 -0.39267191E-05
  0.10229710E-04 -0.12793378E-05 -0.19804599E-05 -0.83145208E-05  0.19114932E-05
 -0.70228081E-06 -0.31541602E-05  0.37354165E-05  0.21523031E-05  0.30503471E-05
 -0.14629181E-06 -0.11629342E-05  0.39343637E-05 -0.56138568E-05 -0.55116784E-06

  0.39021084E-07 -0.24678023E-05 -0.33243778E-07 -0.36460100E-08  0.71256143E-07
 -0.25512940E-07 -0.22569165E-07  0.12236281E-07 -0.38004289E-07  0.70599106E-07
 -0.24440753E-05  0.46749055E-07 -0.23952908E-07  0.30419897E-07 -0.14368118E-08
  0.14554398E-07 -0.13035138E-07  0.11755622E-07  0.25815119E-07 -0.23513306E-05
  0.42671584E-08  0.16524089E-07  0.12657736E-07 -0.15722816E-08  0.11737414E-07
  0.13925324E-09  0.57337709E-08 -0.38550283E-07 -0.23914127E-05  0.99532138E-08
 -0.10354475E-08  0.87502510E-08  0.20062799E-07  0.18051799E-07 -0.97908783E-08
  0.99658932E-08 -0.90215060E-07 -0.22809139E-05 -0.16547922E-07  0.27910428E-07
 -0.41911463E-07  0.35331965E-08 -0.52752977E-08 -0.24734215E-07  0.82494403E-08
  0.13644965E-07 -0.25477148E-05 -0.96979400E-07 -0.52529224E-09 -0.13640372E-07
  0.14674327E-07  0.16655352E-07  0.17854686E-07  0.22778438E-07 -0.86781055E-07
 -0.22304544E-05 -0.42816504E-07 -0.15218165E-07 -0.34534424E-08 -0.59515824E-09
 -0.10940408E-07  0.12104431E-07  0.27189460E-07 -0.88323059E-07 -0.25244567E-05
 -0.51543821E-07  0.73984707E-08 -0.31825731E-07  0.85353482E-08 -0.15640178E-07
 -0.11468015E-07 -0.22113502E-07 -0.46853787E-07 -0.24076348E-05 -0.19218996E-08
 -0.88623640E-08  0.22489295E-07  0.11297741E-07 -0.76134641E-08  0.43828416E-09
 -0.70890707E-08 -0.46487761E-07 -0.24041259E-05  0.11460574E-06  0.58252807E-08
  0.52104439E-07  0.59698426E-08  0.31098357E-07  0.53045521E-08 -0.21179719E-08
  0.29192051E-07 -0.25466060E-05 -0.31670286E-07  0.73035353E-08  0.28345900E-08
 -0.42233885E-08 -0.68336302E-08  0.37657007E-09 -0.11794167E-07 -0.12423053E-06
 -0.24924455E-05 -0.51953313E-07  0.19693165E-07 -0.36854323E-07 -0.12287651E-07
 -0.17559433E-07  0.20485961E-07 -0.20290149E-07  0.89293563E-07 -0.23781153E-05
  0.27466644E-07  0.38549146E-09 -0.14466970E-07  0.28997526E-07  0.44953631E-08
  0.50812305E-08  0.83004453E-08 -0.28504918E-08 -0.24800512E-05  0.32457248E-08
  0.57810367E-08 -0.27344491E-07  0.44274674E-09 -0.18612285E-07  0.18538412E-07
  0.61326127E-09 -0.44928412E-07 -0.27156954E-05  0.51991721E-07  0.57376530E-09
 -0.81209227E-08 -0.40611931E-08  0.57013200E-08 -0.87297736E-08  0.43115325E-07
  0.13717580E-05 -0.37417495E-05 -0.10079594E-04  0.43301351E-05 -0.18630330E-04
  0.26250957E-05 -0.31078550E-05  0.11252504E-05  0.10978021E-05 -0.12961912E-05
 -0.15203222E-04 -0.28557069E-06  0.51842170E-06  0.83546213E-05 -0.15675807E-05
 -0.30792754E-05  0.10280393E-05  0.38050482E-05 -0.83877365E-06 -0.62815430E-05
  0.17676680E-05 -0.19566607E-05 -0.25420177E-05 -0.18701881E-05 -0.35629591E-05
 -0.35015825E-05  0.28699126E-05  0.35519783E-05  0.66381580E-06  0.12108027E-05
 -0.38935110E-05 -0.20012125E-06  0.24169741E-05  0.38304481E-05 -0.40262558E-05
  0.41104031E-05  0.10472661E-05  0.48645875E-05 -0.14810911E-05 -0.53281055E-05
  0.89406967E-05 -0.10947274E-05  0.26417490E-05  0.17678010E-05 -0.19014859E-05
  0.38554081E-05  0.10961630E-03 -0.20977246E-06  0.23059964E-05  0.25674768E-05
 -0.72950280E-08  0.15526033E-06 -0.74229875E-06  0.17044563E-05 -0.32376716E-07
 -0.80325779E-05  0.30861580E-05  0.20426173E-05  0.71258720E-05 -0.65440924E-05
  0.24066615E-05 -0.24952738E-05 -0.64248881E-05  0.20590933E-05 -0.15062578E-04
  0.33907455E-05  0.47187013E-07  0.45695685E-05 -0.27830665E-05  0.91473474E-05
  0.43958192E-06  0.67653740E-05  0.56574305E-05 -0.18687560E-04  0.23253738E-05
 -0.36515831E-05  0.94141349E-05 -0.76517415E-05 -0.50325006E-05 -0.72141251E-06
  0.84217581E-05  0.54510963E-05 -0.11472638E-04  0.14493811E-05  0.34359508E-05
 -0.90389635E-06 -0.24647421E-05  0.95505145E-05 -0.11128082E-05  0.44103499E-06

  0.13506590E-07  0.48710273E-06 -0.52721035E-07  0.16504974E-08 -0.11451914E-07
 -0.18300062E-07  0.13610641E-07  0.48595992E-09 -0.25897115E-07  0.50710526E-07
  0.48174098E-06  0.14410124E-07 -0.11967520E-07  0.11326895E-07 -0.39127272E-07
  0.28081286E-08  0.13933969E-07  0.65116202E-08 -0.32227411E-07  0.52221850E-06
  0.61985305E-07 -0.24461997E-07 -0.17131691E-07  0.54935988E-07  0.49784770E-08
  0.98294539E-08  0.32126216E-08  0.66560451E-07  0.45525451E-06 -0.61048119E-08
 -0.88235248E-08 -0.24017169E-07  0.36290587E-07  0.11476845E-07 -0.19357670E-07
  0.13256629E-08  0.19749915E-07  0.54977587E-06  0.98983868E-08  0.93744232E-08
 -0.51535787E-08 -0.16417286E-07 -0.55617989E-08  0.13949589E-07  0.45949308E-07
 -0.86925681E-07  0.53149196E-06 -0.34812403E-07 -0.75170858E-08 -0.30467924E-07
 -0.11548495E-07  0.27117334E-08  0.34810765E-08  0.50493019E-08 -0.40576415E-07
  0.55547674E-06  0.20400624E-07  0.84889536E-08  0.13085383E-07 -0.36228846E-07
 -0.17950040E-09 -0.11930729E-07 -0.26851965E-08 -0.14358453E-07  0.49846673E-06
 -0.13805605E-07  0.12676522E-08  0.23015980E-07 -0.32797376E-07  0.44778217E-08
  0.10598324E-07 -0.45526512E-08  0.54940881E-08  0.48426609E-06  0.98039126E-07
 -0.13375939E-07 -0.12135851E-07  0.40295470E-07  0.30515335E-08  0.15705516E-07
  0.16387448E-07 -0.48952915E-07  0.54846539E-06 -0.16032263E-07  0.70498332E-08
 -0.18175330E-08 -0.36403129E-07 -0.17264149E-07 -0.15498368E-07 -0.16524805E-07
 -0.45889083E-07  0.50555984E-06 -0.92566388E-07  0.22573099E-08 -0.18126331E-07
  0.45075257E-07  0.69231816E-08 -0.50292921E-08  0.14246529E-08 -0.31351165E-07
  0.54046284E-06 -0.25089758E-07 -0.25394108E-07  0.10185531E-08  0.27569182E-07
 -0.21932114E-07  0.19236178E-08 -0.15093461E-07 -0.10143850E-06  0.51526290E-06
  0.39287597E-07 -0.41952843E-07 -0.65134154E-08 -0.11290008E-07  0.94393639E-08
 -0.38361103E-09 -0.35658102E-08 -0.23645161E-07  0.49900222E-06  0.50253032E-08
  0.15220253E-08 -0.17162619E-08 -0.49082935E-08 -0.79775511E-08 -0.29096209E-07
 -0.31869490E-08 -0.15497295E-07  0.52629375E-06  0.22013239E-07  0.17253025E-07
  0.11373805E-07 -0.11250469E-07  0.27048220E-08  0.72429300E-08 -0.10211391E-07
 -0.43023551E-05 -0.24541847E-05  0.76557883E-05 -0.64797446E-07 -0.10071991E-05
 -0.50386335E-05  0.88539097E-08  0.28145488E-05  0.32362875E-06  0.94474412E-06
  0.59670266E-06 -0.21319996E-05 -0.78037286E-06 -0.25339885E-05  0.48424381E-05
 -0.86658947E-06 -0.17312817E-05  0.26983252E-05  0.33166748E-05  0.51139868E-05
  0.19526997E-05  0.11079700E-05  0.49596425E-06 -0.57087141E-06  0.56468356E-06
 -0.59887040E-06 -0.40858665E-06  0.30921979E-05 -0.42092750E-05  0.15595886E-05
  0.10840945E-05 -0.53379847E-05  0.32675465E-05  0.20335765E-05  0.22719980E-06
  0.60343675E-05  0.48510122E-05 -0.69353833E-05  0.50830996E-05  0.17409501E-05
 -0.10020052E-05 -0.46529184E-05 -0.25258524E-05 -0.39687619E-05  0.44697050E-05
  0.66253534E-05 -0.20977246E-06  0.71818370E-04  0.16988494E-05 -0.15165148E-05
  0.14545484E-05 -0.17544303E-05  0.92214290E-06  0.40095809E-07  0.73752791E-05
  0.18831346E-05 -0.27921522E-05  0.14864186E-05 -0.11123514E-05 -0.57323864E-05
 -0.61504966E-06 -0.38510036E-06  0.80014654E-06  0.22973932E-05  0.88011010E-06
  0.95482370E-06 -0.28340892E-05  0.11896533E-05 -0.37220993E-05 -0.53865529E-06
 -0.28352712E-05 -0.27211568E-05 -0.93917593E-06  0.30978005E-05 -0.15951895E-05
  0.32761569E-05 -0.28279659E-05 -0.77972120E-06 -0.19472173E-05  0.13123555E-05
 -0.43698895E-06  0.35985888E-05 -0.54639603E-05 -0.13094341E-05 -0.30405635E-05
 -0.51309554E-06 -0.31181938E-05  0.12768740E-05  0.15643758E-05  0.31010150E-05

  0.34159512E-07  0.28440735E-06  0.48306219E-07 -0.16230119E-07  0.65663700E-08
 -0.72393704E-08 -0.17207599E-07 -0.36141319E-07  0.13317773E-07 -0.24284073E-07
  0.30868341E-06 -0.34788947E-07  0.80685624E-07 -0.43357547E-07 -0.21006775E-08
 -0.53364568E-07 -0.84881476E-08 -0.54961604E-08 -0.11462432E-06  0.30678137E-06
 -0.33789081E-07 -0.36558748E-08  0.22885284E-07 -0.91493361E-08  0.34742052E-07
  0.69694692E-10  0.34090256E-08  0.14873773E-06  0.25760282E-06  0.25039510E-07
  0.89077672E-07 -0.20460394E-07 -0.46246839E-08 -0.30621686E-07 -0.21753131E-07
  0.79384186E-09  0.52276396E-07  0.36086698E-06 -0.31895448E-07  0.36543142E-07
  0.23208910E-07  0.35044385E-08 -0.12670850E-07  0.21483148E-07 -0.63973693E-08
  0.98609489E-07  0.20510236E-06  0.28119027E-07 -0.33016310E-07 -0.39552476E-08
  0.11499492E-07  0.11432713E-08  0.25081360E-07 -0.16256982E-07  0.53520635E-07
  0.29020233E-06 -0.88020465E-08 -0.44503768E-07  0.96647496E-08  0.12613333E-07
  0.23146719E-07  0.32667079E-08 -0.57115359E-08  0.14056665E-06  0.24340660E-06
  0.11020306E-07  0.41646202E-07  0.14494702E-07 -0.27718012E-08  0.34035734E-07
 -0.21251956E-07  0.18063847E-08  0.16784523E-06  0.24476733E-06 -0.27255589E-07
 -0.86671497E-07  0.47492852E-07  0.17171816E-07  0.17110757E-07  0.28132425E-07
  0.51114053E-08  0.13417201E-07  0.33171426E-06 -0.21347477E-07 -0.10775938E-07
 -0.10556302E-07  0.63696898E-08  0.21526901E-07 -0.19960695E-07 -0.10082453E-07
  0.11189643E-06  0.24834693E-06  0.13831311E-07 -0.14552619E-06  0.71593145E-08
  0.22112881E-07 -0.14494705E-07  0.37932362E-07  0.45949697E-08 -0.84881120E-07
  0.36187474E-06 -0.25543079E-07  0.83073317E-08  0.20240842E-07 -0.10293881E-07
 -0.22998861E-07 -0.66447381E-08 -0.11637635E-07 -0.76348736E-07  0.38790843E-06
  0.29922760E-07 -0.18664786E-07  0.16171073E-08  0.25927426E-07 -0.26762519E-07
  0.30375335E-07 -0.48990288E-08 -0.42030339E-07  0.20982211E-06  0.56385106E-07
  0.22455313E-08  0.44404090E-08 -0.28668044E-07  0.21394362E-08 -0.48785816E-07
  0.41240626E-08  0.18869142E-06  0.25611089E-06 -0.51884735E-07  0.16446991E-06
 -0.63240778E-07  0.73804411E-08  0.57675963E-08  0.39866393E-07  0.52681791E-08
  0.81164338E-05  0.25706332E-05  0.13596736E-05 -0.19912697E-04  0.64888407E-05
  0.46920405E-05 -0.52971206E-06  0.13001354E-06 -0.10059137E-07  0.24031687E-05
 -0.42871896E-05  0.57029177E-05  0.61320462E-05  0.35727617E-05 -0.35863410E-05
  0.14838153E-05 -0.17583028E-05  0.89497498E-06  0.11234322E-05  0.10909098E-05
 -0.14981480E-05  0.65049347E-05  0.45878583E-05 -0.44193259E-05  0.17701634E-05
 -0.18212945E-05  0.10744387E-05  0.50624381E-06 -0.19383278E-05 -0.33211875E-05
  0.96559019E-05 -0.56257818E-05 -0.89140359E-06 -0.36745871E-05  0.30618833E-06
 -0.49984488E-06  0.11361718E-04 -0.13420840E-05 -0.94860605E-06 -0.16248195E-04
 -0.14649401E-05  0.30369425E-05  0.82747290E-05 -0.46686133E-05 -0.23431346E-06
 -0.60329570E-05  0.23059964E-05  0.16988494E-05  0.14573926E-03 -0.31085114E-04
 -0.25484159E-04  0.50410941E-07 -0.29992199E-05 -0.72128192E-06  0.14161937E-05
  0.20247608E-05  0.91265388E-06  0.79721481E-05 -0.36749816E-05 -0.31624168E-05
 -0.23374856E-05 -0.55993013E-06  0.44209692E-06  0.17760947E-05  0.24039721E-05
  0.61232508E-06 -0.10257444E-04  0.12221242E-05  0.30676104E-05  0.54276557E-07
 -0.96519800E-05  0.98509186E-06  0.24344208E-05 -0.40621374E-05  0.16651030E-06
 -0.13486105E-05  0.29900110E-06  0.13341568E-06 -0.48781420E-05 -0.15694684E-05
  0.86457547E-07  0.19413481E-05 -0.30641315E-05 -0.23165008E-05  0.93577201E-05
 -0.35937930E-05  0.85458488E-06 -0.15783992E-05 -0.60710694E-05  0.54422674E-05

  0.49712104E-07 -0.81787607E-06 -0.12045218E-06  0.10391215E-08  0.55399283E-07
 -0.14671836E-08 -0.31626158E-07  0.17339335E-07  0.96802768E-09  0.19705036E-07
 -0.94491317E-06  0.55675957E-07 -0.29161991E-07  0.62035158E-07 -0.22741185E-08
 -0.11340047E-07 -0.73969937E-08 -0.21397744E-07 -0.55455517E-07 -0.87877968E-06
  0.37481292E-07  0.21268617E-07  0.30361849E-07 -0.13538564E-07  0.92195525E-08
  0.31170139E-08 -0.25968350E-07  0.24908682E-07 -0.97422944E-06  0.15518098E-07
 -0.25175695E-07  0.43002374E-07  0.52200285E-09 -0.23658034E-07 -0.49137586E-08
  0.27012068E-08  0.21410435E-07 -0.11785364E-05  0.28684763E-07  0.21745322E-07
 -0.44502696E-07  0.10601653E-07  0.54862110E-08 -0.26366391E-07  0.45470821E-07
 -0.44445289E-07 -0.92745837E-06  0.40116488E-07  0.12646405E-07  0.78483074E-07
 -0.23021901E-07  0.36783602E-09  0.48622382E-08 -0.17106913E-07  0.49851629E-07
 -0.10329408E-05 -0.16706445E-07  0.83356848E-08 -0.89347226E-07  0.17308104E-07
  0.27717211E-07 -0.99119517E-08  0.90331063E-08 -0.59046679E-07 -0.10123162E-05
 -0.57849487E-07  0.34039402E-08  0.24846268E-07 -0.10414820E-07  0.16645293E-07
 -0.20237483E-08 -0.17305921E-07  0.10354185E-06 -0.88900510E-06 -0.52980363E-07
  0.42689941E-07 -0.88539287E-07  0.28170747E-07 -0.92158066E-08 -0.16664625E-07
  0.14106357E-07  0.27434496E-07 -0.83809034E-06  0.43103444E-07  0.14229240E-07
 -0.10280428E-07 -0.38804271E-08  0.20085856E-07 -0.88238465E-08 -0.50200993E-07
 -0.11363716E-07 -0.79375330E-06 -0.22087781E-07  0.22865811E-07  0.77382268E-07
 -0.15052248E-08 -0.30441529E-08 -0.35208942E-08  0.36128509E-08  0.95131168E-07
 -0.10492595E-05 -0.10890045E-06  0.21113758E-07 -0.13904826E-06  0.38209808E-07
  0.33746686E-07  0.17323560E-07 -0.23839003E-07  0.37305743E-08 -0.11447030E-05
  0.50244796E-07  0.18637992E-07 -0.35107904E-07  0.33830520E-07 -0.15770604E-08
  0.94429609E-08 -0.25449853E-07 -0.10249665E-06 -0.96444019E-06  0.89797392E-07
 -0.85994790E-09  0.54317452E-07 -0.36353548E-07  0.77982384E-08  0.15662368E-07
 -0.98767166E-08 -0.57567602E-07 -0.76355918E-06  0.34486957E-07 -0.61106941E-07
  0.14930272E-06  0.22853739E-07  0.12698852E-07  0.32884272E-09 -0.16448449E-07
 -0.45056568E-05 -0.77457107E-05  0.28649605E-06  0.61292640E-05 -0.25459964E-04
  0.46471274E-05 -0.48561126E-05 -0.19837202E-06  0.62855622E-05 -0.27650874E-05
  0.82710296E-05 -0.68988710E-06  0.23294885E-05 -0.75941018E-05  0.14851794E-05
  0.55704637E-05  0.35196278E-06 -0.40831377E-05  0.34507435E-05 -0.12084108E-04
 -0.19936231E-05  0.43238682E-05 -0.12590052E-04  0.25781438E-05 -0.11143096E-05
 -0.40475951E-06  0.19525688E-05 -0.45170991E-05  0.49144468E-05  0.28041821E-05
 -0.43506542E-05  0.37953193E-05  0.32959840E-06  0.24847774E-05 -0.90326360E-06
  0.42223149E-06  0.11345017E-05  0.10085561E-04  0.14017856E-07  0.10070404E-05
  0.15961134E-04 -0.36048387E-05 -0.98027676E-05 -0.13221312E-05  0.11679225E-05
 -0.26114070E-06  0.25674768E-05 -0.15165148E-05 -0.31085114E-04  0.13356170E-03
 -0.23514165E-04  0.14507048E-05 -0.77810670E-06 -0.16861553E-05 -0.63396772E-05
  0.80987528E-05 -0.43023489E-05 -0.28322835E-05  0.14662091E-04 -0.38557566E-05
 -0.36551655E-05  0.15084170E-05 -0.88304423E-05 -0.29973835E-05  0.98792323E-05
 -0.19552267E-05 -0.11030909E-06 -0.99837700E-05  0.32789690E-05  0.47100429E-05
  0.11782543E-05 -0.16024393E-05 -0.27754479E-05 -0.43105670E-05 -0.10397468E-05
 -0.35562999E-06  0.10421202E-04  0.12611994E-05  0.45578192E-06 -0.26227720E-05
  0.83983900E-06  0.65002420E-05 -0.54662530E-05  0.55016615E-06 -0.29293273E-05
  0.83366745E-06 -0.59520341E-06  0.21772010E-05  0.26942176E-05 -0.27135009E-05

 -0.35804778E-07  0.26011914E-06 -0.38517510E-07 -0.62096703E-08 -0.66322568E-08
  0.41886682E-07  0.40601075E-08  0.66134776E-08  0.13673297E-08  0.18627971E-07
  0.29189813E-06 -0.16707740E-07 -0.48200557E-08 -0.30989904E-08  0.14523207E-08
  0.92085140E-08  0.16410956E-07  0.19064100E-07  0.42388709E-07  0.25573947E-06
 -0.21041034E-07 -0.16298681E-07 -0.13527330E-07  0.21484716E-07 -0.77536409E-08
 -0.26662265E-08 -0.66529090E-08 -0.36962413E-07  0.31183581E-06 -0.62552932E-07
  0.23010989E-08 -0.13815233E-07  0.97960040E-09  0.31204215E-08  0.83393661E-08
  0.13973278E-07 -0.19964091E-07  0.33355316E-06 -0.62371542E-09 -0.11316832E-07
  0.10885025E-07 -0.19207399E-07  0.26460216E-08  0.13550107E-08  0.76277215E-08
  0.84424772E-08  0.26419494E-06  0.65675630E-07  0.10337010E-07 -0.13584399E-07
 -0.40105751E-08 -0.67989786E-08 -0.28254346E-07  0.11271281E-07 -0.30510966E-07
  0.23375180E-06  0.17837419E-06  0.10841849E-07  0.42264187E-08 -0.38152791E-07
 -0.12382166E-07  0.23993743E-08  0.70227619E-08 -0.31081732E-07  0.32611489E-06
  0.30617463E-07 -0.10139392E-07 -0.20610505E-07  0.16631117E-07  0.14405447E-09
  0.51183145E-08  0.70430267E-08 -0.79433359E-07  0.28255563E-06 -0.44693494E-07
  0.19406299E-07  0.23761746E-07 -0.42693758E-07 -0.25433673E-08 -0.23377915E-07
  0.10246393E-07  0.10468196E-08  0.27919903E-06  0.24145994E-07  0.39995156E-09
  0.49573707E-08 -0.11138841E-07 -0.12229233E-07  0.14424624E-07 -0.27832045E-08
 -0.93136748E-07  0.28690863E-06 -0.13421416E-06  0.13073695E-07 -0.87663432E-08
 -0.86261774E-09  0.73011608E-08 -0.18508200E-07 -0.93356091E-08 -0.23151424E-07
  0.26761039E-06  0.36138879E-07 -0.86940449E-08  0.17322536E-07  0.12838540E-07
 -0.78429884E-08 -0.12691763E-07  0.34142498E-07  0.72061276E-07  0.29173534E-06
 -0.80298902E-07  0.20347419E-07  0.29854066E-07 -0.79538130E-07  0.52222783E-08
  0.16233524E-07  0.68271695E-08  0.28919567E-07  0.28838784E-06 -0.12861371E-06
 -0.82939423E-08 -0.29639568E-07  0.54809554E-07 -0.37388865E-08 -0.13726931E-07
  0.11342426E-07  0.32972221E-07  0.26130408E-06 -0.80926515E-07 -0.13396179E-07
  0.12743665E-07 -0.22256784E-07  0.16449672E-08 -0.47331165E-08 -0.13663127E-07
  0.12455701E-05  0.13665172E-05 -0.60169939E-05  0.27295670E-05  0.30849982E-05
 -0.47306221E-05 -0.91392663E-06  0.48431528E-05  0.84130093E-06  0.24944708E-06
 -0.16027780E-05  0.39534340E-05 -0.24180299E-05  0.90621309E-06  0.50860724E-06
 -0.10030888E-05  0.28008204E-05 -0.15060229E-05  0.10958776E-05  0.22009747E-06
 -0.13892327E-05 -0.43113701E-05  0.11904377E-05  0.32841577E-06  0.89477253E-06
  0.75674775E-06 -0.29146796E-07  0.20315554E-05  0.86132714E-06 -0.36316603E-05
 -0.97262468E-06 -0.13839040E-06  0.49971693E-05 -0.38938344E-06  0.73335162E-06
  0.16100113E-05 -0.12619383E-05 -0.43367996E-06  0.15545065E-05  0.19276398E-05
 -0.35480470E-05 -0.29243851E-06  0.19874493E-05 -0.12385618E-05  0.95446447E-06
  0.11412318E-05 -0.72950280E-08  0.14545484E-05 -0.25484159E-04 -0.23514165E-04
  0.65724024E-04 -0.78052185E-06  0.13368023E-05 -0.72407238E-08  0.38414553E-05
 -0.35117274E-05  0.11720982E-05 -0.36870506E-05 -0.22619545E-05  0.98303272E-05
  0.16665366E-05 -0.12190598E-05  0.40369818E-06  0.61036038E-06 -0.35435727E-05
 -0.28456139E-05  0.19034657E-05  0.22031313E-05 -0.27671430E-05 -0.14033045E-05
  0.45624878E-06  0.56520380E-09  0.11503314E-05  0.50168481E-06 -0.58268862E-05
 -0.78389898E-06  0.21277339E-07 -0.71473907E-05  0.96227520E-06  0.36798261E-05
  0.78305757E-07 -0.23003420E-05  0.19145182E-05 -0.35623537E-06  0.12005198E-05
  0.11838640E-05 -0.16315697E-05 -0.63792398E-07  0.19193976E-06 -0.28425991E-05

 -0.36880745E-08  0.91702694E-06  0.94786198E-07  0.22627656E-07 -0.17580660E-07
  0.14932163E-08  0.72061199E-07 -0.29122656E-07 -0.10931482E-07  0.19950028E-07
  0.81894524E-06  0.81238492E-07  0.33238777E-07  0.55824177E-07 -0.12926545E-07
  0.20661026E-08  0.12648201E-07 -0.36100520E-07  0.61100993E-07  0.87084748E-06
  0.23604239E-07  0.29414142E-07  0.85533495E-09 -0.11825288E-07 -0.30763446E-07
 -0.45726105E-08  0.39499677E-08  0.97050947E-08  0.79543587E-06  0.28119758E-07
 -0.49056942E-07  0.19431298E-07 -0.40977786E-08  0.23297155E-07  0.28441950E-07
 -0.30994536E-07  0.17727592E-06  0.82992968E-06 -0.63250121E-07  0.52124744E-09
 -0.35217404E-07  0.23254981E-07  0.87452567E-08 -0.19937035E-07 -0.21789765E-07
  0.11007535E-06  0.85148584E-06  0.15217067E-07  0.10878649E-07 -0.23869905E-07
 -0.13807545E-07  0.84368698E-07 -0.23560165E-07  0.12120836E-07 -0.52389921E-07
  0.83017521E-06  0.60522881E-07 -0.10378382E-07  0.72226386E-08  0.33829894E-09
  0.42106143E-07  0.10837780E-07  0.10754247E-07  0.45249947E-07  0.85598711E-06
  0.35279727E-09 -0.15794531E-07  0.10506898E-07  0.11227615E-07  0.45497701E-08
  0.90163052E-08  0.63033302E-08 -0.11852884E-07  0.87785481E-06 -0.66157584E-08
  0.21953980E-07 -0.16298978E-07 -0.12045404E-07 -0.51416219E-07  0.12599709E-07
 -0.27475156E-08 -0.12067972E-07  0.78472690E-06  0.40008708E-08 -0.57351729E-07
 -0.12648186E-07  0.19540740E-07  0.22296157E-07 -0.83049816E-09  0.36581556E-07
 -0.42221103E-07  0.69835025E-06 -0.41767115E-07  0.50843296E-08  0.16293073E-07
  0.47654524E-08 -0.34302606E-07 -0.44983682E-08 -0.11627531E-07  0.14936220E-06
  0.95101576E-06 -0.61920286E-07 -0.34474438E-07  0.20451835E-07  0.81280932E-09
 -0.61007005E-09  0.14346807E-07 -0.13246168E-07  0.13058660E-07  0.82906696E-06
  0.13465316E-07 -0.22395988E-07 -0.16988096E-07  0.48425411E-08 -0.31940952E-07
  0.18323032E-07  0.10639722E-07 -0.75024466E-07  0.86190638E-06 -0.35378152E-07
  0.25072176E-07 -0.91375754E-08  0.81185075E-08 -0.40813684E-07  0.10503609E-07
 -0.31132217E-08 -0.10324476E-07  0.83883274E-06  0.27440494E-07  0.28340365E-07
 -0.51629976E-08 -0.19588431E-07  0.85784870E-07 -0.18946744E-07  0.77431557E-08
 -0.51032296E-05 -0.33337103E-06  0.48054272E-05  0.19054249E-05  0.53322934E-05
 -0.25605725E-05  0.55147264E-05  0.49598174E-05 -0.14024375E-05 -0.56978698E-05
 -0.17315372E-05  0.64591984E-06 -0.17287345E-05 -0.22935626E-05  0.57889221E-06
  0.25939841E-05 -0.20611469E-06 -0.84479603E-06 -0.32379762E-05  0.59682903E-05
 -0.42354492E-05  0.69402714E-05  0.87028377E-06  0.14563864E-06 -0.68638166E-05
 -0.11855526E-05 -0.20776320E-05  0.43303444E-05 -0.21035763E-05 -0.39673844E-06
  0.42699229E-05 -0.42868475E-06 -0.35045805E-06  0.23581776E-06  0.30349456E-05
  0.31366256E-06 -0.28805482E-06 -0.27355718E-05  0.69127698E-06 -0.19693421E-05
  0.20288193E-05 -0.69280455E-06 -0.47630050E-06  0.29036732E-05  0.10688617E-05
 -0.37973193E-05  0.15526033E-06 -0.17544303E-05  0.50410941E-07  0.14507048E-05
 -0.78052185E-06  0.10326486E-03 -0.23505812E-05 -0.57319658E-05  0.14945566E-05
 -0.63108656E-05 -0.29678154E-05 -0.37868870E-05 -0.35634855E-05  0.89121448E-06
 -0.21196461E-05 -0.68361307E-05 -0.15599850E-05 -0.57860455E-05  0.26700880E-06
 -0.19798250E-05 -0.21794094E-06  0.10931816E-05 -0.21498457E-06 -0.76240690E-05
  0.97717680E-06 -0.68676625E-06 -0.80333749E-05 -0.60863836E-05 -0.26167591E-05
 -0.18525913E-05 -0.49855188E-05  0.32757283E-05 -0.23048122E-05 -0.39250641E-06
 -0.29941109E-05 -0.89098675E-05  0.29915895E-06 -0.50030454E-05 -0.60951357E-06
 -0.12196819E-05  0.75103504E-06  0.43856331E-05  0.56491380E-06 -0.84585229E-06

  0.11430872E-07 -0.17787215E-06 -0.29414880E-07 -0.28199553E-07 -0.53588459E-08
  0.76794961E-08  0.18323268E-07  0.18751133E-07 -0.11174519E-07 -0.68740962E-07
 -0.13706825E-06  0.18633798E-07 -0.28217634E-08 -0.93603419E-08  0.54402522E-08
  0.68312119E-09  0.12889329E-07 -0.72492215E-08 -0.72013044E-07 -0.17220880E-06
  0.30842781E-07 -0.33013047E-08  0.67343913E-09 -0.18390744E-07 -0.64512332E-08
  0.19272458E-08 -0.40641989E-08 -0.52548137E-07 -0.18436936E-06 -0.50075563E-08
 -0.30727111E-07 -0.85999381E-08  0.14386559E-07  0.13668434E-07  0.11995390E-07
 -0.19496185E-07 -0.18304314E-09 -0.21098653E-06  0.34808061E-08 -0.23709536E-08
 -0.84572163E-08  0.83260039E-08  0.19195126E-07  0.20731814E-07  0.10611363E-07
  0.23626092E-07 -0.12343633E-06  0.75894493E-08  0.20513266E-07  0.10215980E-07
 -0.42706319E-07 -0.20594709E-07 -0.13845248E-07 -0.34420301E-08  0.84236711E-07
 -0.13939945E-06  0.83316191E-08  0.17791407E-08 -0.46518254E-08  0.10935475E-08
  0.17666585E-08 -0.34544049E-07  0.23437633E-08  0.40007731E-08 -0.21328738E-06
 -0.31502580E-07 -0.25717764E-07 -0.36591488E-08  0.12033608E-07 -0.19947162E-08
  0.20734197E-07  0.15206973E-07 -0.11721508E-06 -0.15648880E-06 -0.18010796E-07
  0.13377919E-08 -0.17419405E-07 -0.16679215E-07  0.12750747E-07 -0.13495071E-07
 -0.67879106E-09 -0.27338216E-07 -0.16603896E-06 -0.82703728E-08 -0.15457672E-07
 -0.11962663E-07  0.11774384E-07 -0.14751366E-07 -0.10725415E-07 -0.10737222E-07
 -0.13320591E-06 -0.13716379E-06 -0.93478787E-07  0.35569558E-07 -0.69488012E-08
 -0.29594236E-07  0.35083296E-08 -0.28210670E-07  0.27094854E-08 -0.28286086E-07
 -0.64023654E-07 -0.29050885E-07  0.47617639E-08 -0.14373804E-07 -0.78263866E-08
 -0.11737398E-08  0.39156713E-08 -0.79029232E-08  0.16517147E-07 -0.20453582E-06
  0.96133290E-07  0.26307702E-07  0.18431370E-08  0.16549965E-07 -0.18473408E-07
 -0.61288080E-08  0.56839978E-08  0.21037477E-07 -0.22089639E-06 -0.14536431E-07
 -0.47581830E-07  0.30857381E-07 -0.28781172E-07  0.20854975E-07 -0.17784281E-07
  0.28750734E-08 -0.11637676E-06 -0.18278555E-06  0.99439976E-07  0.36392341E-07
 -0.12237091E-07 -0.14007118E-07 -0.98789949E-08  0.43389800E-07 -0.37792548E-09
 -0.27293879E-05 -0.20632094E-05  0.18967268E-05  0.17637600E-05 -0.19540804E-05
  0.65263719E-05  0.32212708E-05 -0.42397229E-05 -0.25910882E-05  0.10337252E-04
 -0.13773981E-05 -0.52959755E-06 -0.19788615E-05 -0.42618145E-06  0.24675020E-05
 -0.12783825E-05 -0.95200397E-06  0.99625282E-06 -0.27898773E-05  0.13268432E-05
  0.28959511E-05 -0.27341320E-05 -0.14822139E-06  0.69227857E-06  0.21927046E-05
 -0.34239439E-05  0.34559880E-05 -0.47930654E-05  0.39014469E-06  0.99028660E-06
 -0.75520157E-06 -0.45159907E-06  0.77692761E-06  0.89245309E-06  0.39126937E-05
 -0.15593752E-05 -0.86197032E-06 -0.46222505E-06  0.23801849E-05 -0.23403872E-05
 -0.14337383E-05 -0.26542534E-05  0.25080364E-05 -0.20867475E-05  0.29929791E-05
  0.32886416E-05 -0.74229875E-06  0.92214290E-06 -0.29992199E-05 -0.77810670E-06
  0.13368023E-05 -0.23505812E-05  0.61099151E-04 -0.86182753E-06  0.10155929E-05
  0.60626807E-06  0.59761960E-05  0.15801161E-05  0.23109187E-05 -0.36919692E-05
 -0.30877070E-05  0.34801652E-05  0.62513265E-06  0.14002466E-05  0.20555681E-05
  0.17804317E-05 -0.84916413E-05  0.18235698E-05 -0.38160473E-06 -0.70260166E-06
 -0.10418238E-05 -0.41135263E-06 -0.28530318E-05  0.17279726E-05  0.28338216E-05
 -0.57841112E-06 -0.23513149E-06  0.29696687E-05  0.14061328E-05 -0.60423283E-05
 -0.26931888E-07 -0.41000178E-05  0.10288958E-05 -0.21398924E-05 -0.61483380E-05
  0.14157668E-05  0.23571216E-06  0.42182293E-05  0.36873657E-05 -0.10704479E-06

  0.34199908E-07  0.53855374E-06 -0.10518375E-06 -0.31252898E-08  0.82969299E-08
 -0.30583727E-07 -0.99198885E-08 -0.36414849E-08  0.35831476E-07  0.78755257E-07
  0.41111747E-06 -0.98787837E-07  0.39850191E-08  0.18015495E-07  0.19141223E-08
 -0.34483361E-07  0.15033679E-07  0.85024976E-08  0.21233025E-07  0.38433505E-06
 -0.20488038E-07 -0.12964333E-07 -0.28814676E-08  0.34819247E-07 -0.30019562E-08
 -0.55376743E-08 -0.67610556E-08  0.59703317E-08  0.46012084E-06 -0.54682460E-07
  0.11536882E-07  0.30407267E-07  0.12188796E-07 -0.23842475E-07 -0.62460676E-08
  0.29645093E-07 -0.37718505E-07  0.35527441E-06  0.20974344E-06 -0.12929352E-09
 -0.30901948E-07  0.10251138E-07 -0.17759330E-07  0.13967156E-07 -0.46105737E-08
  0.31452462E-07  0.34705279E-06  0.40823405E-07 -0.11932645E-08 -0.16844024E-07
 -0.79338122E-08 -0.14459806E-08 -0.78272278E-08  0.22166763E-07  0.76269177E-07
  0.37857495E-06 -0.32762799E-07  0.14877891E-08 -0.71375199E-08 -0.47240908E-08
  0.52316523E-08 -0.32851388E-09  0.19475639E-07  0.71918732E-08  0.40083945E-06
 -0.38118034E-07 -0.92603744E-08  0.15224116E-07 -0.29720075E-08  0.50957091E-08
  0.46008637E-08 -0.25572329E-08 -0.34502072E-07  0.45872984E-06  0.34877215E-07
  0.16887226E-07 -0.35326525E-07  0.66265363E-08 -0.79521481E-08 -0.86128954E-08
 -0.37461703E-07 -0.10008849E-07  0.32893769E-06 -0.22475253E-07  0.14133957E-07
 -0.72229124E-08 -0.32464871E-07  0.34633832E-07 -0.85383579E-08 -0.57128954E-07
 -0.25103874E-07  0.29599068E-06 -0.32703417E-07  0.95471930E-08  0.13718345E-08
 -0.56121565E-08 -0.19722850E-07  0.17909300E-07 -0.33022207E-07 -0.58175378E-07
  0.46101143E-06 -0.14197341E-07  0.27495572E-07  0.54466546E-08 -0.44217355E-07
 -0.12073334E-07 -0.89566060E-08  0.31032643E-07 -0.17851662E-07  0.45728795E-06
 -0.90236546E-07 -0.97991227E-08  0.35165816E-07  0.29282381E-07  0.15860553E-07
 -0.10503286E-08 -0.36362087E-07 -0.23118726E-07  0.48893585E-06 -0.20628616E-07
  0.24962467E-08 -0.97695135E-08  0.13693469E-07 -0.52541402E-08  0.15629310E-07
 -0.84056395E-10  0.40276453E-07  0.38522005E-06 -0.30402557E-09 -0.30197999E-11
  0.17428876E-07 -0.16120766E-07  0.14819752E-07 -0.18749224E-07 -0.27238640E-08
  0.30787953E-05  0.31642488E-05 -0.12672577E-05  0.25211643E-05 -0.78885118E-06
 -0.95052729E-06 -0.13974408E-05 -0.41270331E-06  0.38033992E-05  0.16831476E-05
  0.13036674E-05  0.20557398E-05 -0.29110071E-06  0.66796053E-06  0.74584632E-06
 -0.51880937E-06 -0.59977504E-06  0.36676929E-05 -0.13937864E-05 -0.43458359E-05
  0.61954432E-06 -0.30340645E-05  0.16243337E-05  0.42387624E-05 -0.22330399E-05
  0.57220277E-05 -0.73158390E-05  0.60038933E-06  0.23982047E-05  0.48612721E-05
  0.94919826E-06  0.23312887E-05 -0.81562627E-06  0.14778103E-05  0.88828420E-06
 -0.31252390E-07  0.10927970E-05 -0.59046932E-05 -0.67173948E-06 -0.24821295E-05
  0.60463142E-05  0.53246753E-05 -0.79053825E-06 -0.31545497E-06  0.24223211E-05
 -0.23506381E-05  0.17044563E-05  0.40095809E-07 -0.72128192E-06 -0.16861553E-05
 -0.72407238E-08 -0.57319658E-05 -0.86182753E-06  0.69752771E-04 -0.35769681E-07
 -0.18647869E-05  0.10121772E-05  0.85264234E-06 -0.38831644E-05 -0.57365000E-05
 -0.70411168E-06 -0.20179991E-05 -0.69375430E-06 -0.40034334E-06 -0.21849971E-05
 -0.28532013E-05  0.12361740E-05 -0.16043084E-05 -0.76416646E-06 -0.12137369E-05
  0.60610880E-06 -0.92324987E-05 -0.75757528E-07 -0.31648402E-05  0.29660589E-05
  0.66986627E-06 -0.27421405E-05 -0.22737478E-05 -0.23263033E-05  0.77054800E-06
  0.34923893E-06 -0.41203915E-05  0.27425939E-05 -0.28719862E-05  0.33672917E-06
 -0.38496231E-05  0.30286245E-05 -0.13851113E-05  0.84805339E-06  0.93791573E-06

 -0.15487163E-06  0.17610053E-05 -0.92818725E-08  0.13489826E-07  0.81708817E-08
 -0.17792958E-08 -0.12669130E-07 -0.18081601E-07 -0.72376274E-08  0.12738020E-07
  0.17625359E-05  0.39603249E-07 -0.22095997E-07  0.13436430E-07 -0.10473821E-07
  0.34918454E-07  0.74702981E-08  0.11153382E-07  0.25050694E-06  0.18458016E-05
  0.87212375E-08  0.45431747E-08 -0.10585618E-07  0.83308559E-08 -0.21195459E-07
 -0.21578645E-07  0.63865289E-09 -0.57786369E-07  0.17999230E-05  0.20256143E-07
  0.21767421E-07  0.20679190E-07 -0.12794078E-07 -0.35317692E-07 -0.94940109E-08
  0.73397353E-08  0.65524538E-07  0.18421729E-05  0.80806704E-07  0.51543415E-07
 -0.14173171E-07 -0.30897567E-07  0.37674593E-08  0.29761461E-08  0.19507137E-07
  0.59285494E-07  0.17989590E-05  0.15059677E-07 -0.19197653E-07  0.86683999E-08
 -0.10392899E-07  0.80503498E-08  0.21920121E-07  0.93813680E-08  0.13889248E-06
  0.18353628E-05  0.10490415E-06 -0.56389594E-07  0.93419188E-08  0.13187640E-07
  0.79666959E-08  0.10701145E-07  0.20704271E-08  0.10581234E-06  0.18701036E-05
  0.70794676E-08 -0.78451325E-08 -0.46553703E-08 -0.68757465E-09 -0.11576763E-07
 -0.57525154E-09 -0.95517793E-08  0.16041507E-07  0.19176110E-05  0.32304574E-08
  0.24004237E-07 -0.21590504E-07 -0.19357310E-07 -0.83729373E-08  0.54467817E-08
 -0.28991742E-08  0.27866096E-08  0.18347094E-05 -0.47037561E-07  0.32718732E-07
  0.84318178E-08 -0.16001211E-07 -0.26207181E-07  0.46766368E-08  0.20480564E-07
 -0.50266481E-07  0.18814018E-05  0.10816532E-07 -0.31910154E-07  0.94220230E-08
  0.47731388E-08 -0.14159651E-07 -0.91850381E-08  0.14169211E-07  0.54751616E-07
  0.19341922E-05 -0.14096848E-06  0.26409757E-07 -0.51983432E-07 -0.63467518E-08
 -0.29460111E-07 -0.15229401E-07 -0.17753806E-07 -0.90024819E-07  0.18553760E-05
  0.78462039E-07  0.24213673E-08 -0.23972543E-07 -0.44574590E-08  0.12259313E-08
 -0.43359678E-08  0.82192246E-08  0.11026264E-06  0.18973139E-05 -0.16672920E-07
  0.61781498E-07 -0.21981640E-07  0.11738710E-08  0.31502633E-07  0.14216423E-07
 -0.10860684E-07 -0.82440741E-07  0.17653303E-05 -0.28334492E-07 -0.44619780E-07
 -0.28148923E-07 -0.38692947E-08 -0.11592096E-07  0.13798569E-07  0.11612228E-07
 -0.27026724E-05 -0.13337186E-04  0.73349122E-06  0.17279394E-05 -0.30307978E-06
 -0.12099241E-05  0.26769025E-05  0.45566901E-05 -0.24851364E-05  0.23931020E-05
  0.34834190E-05  0.39319712E-05 -0.68172735E-05  0.31048042E-06  0.36367356E-05
 -0.44232811E-05 -0.28505448E-05 -0.53612478E-06  0.10766431E-04 -0.63563503E-06
  0.50774554E-05 -0.28893174E-05 -0.51918853E-05  0.41368921E-05  0.35062978E-06
 -0.57951042E-07 -0.33524521E-07  0.10561151E-04 -0.90931101E-07  0.10500240E-06
  0.37633225E-05  0.27554534E-05 -0.52841580E-05  0.40258019E-05 -0.31855243E-05
 -0.39636613E-07 -0.29669918E-05 -0.11996310E-06 -0.55574572E-05  0.68598540E-05
 -0.50855070E-05  0.11517267E-05 -0.44421127E-05  0.97895515E-07  0.12995856E-05
 -0.40899857E-05 -0.32376716E-07  0.73752791E-05  0.14161937E-05 -0.63396772E-05
  0.38414553E-05  0.14945566E-05  0.10155929E-05 -0.35769681E-07  0.97784397E-04
 -0.11534639E-04  0.11694949E-04 -0.80822157E-06 -0.38236692E-05  0.27653583E-05
  0.76173544E-05  0.41888843E-05  0.37351548E-05  0.46574456E-05 -0.23029634E-05
 -0.62694291E-06  0.86819984E-05 -0.41694117E-05 -0.10931046E-05 -0.13040018E-05
  0.25941355E-05 -0.10926562E-05  0.60001094E-05  0.51045702E-07  0.45135257E-05
 -0.58618942E-05  0.12480465E-05 -0.16758494E-05 -0.19567152E-06 -0.36946651E-05
  0.29069505E-05  0.32230915E-06 -0.30825692E-05 -0.23554849E-05  0.17205028E-05
  0.83141452E-06 -0.52153918E-06 -0.16108506E-05 -0.16071302E-05 -0.27908911E-05

  0.73202003E-07 -0.39781084E-05 -0.53256172E-07 -0.34916010E-07 -0.37772958E-07
  0.68144526E-08  0.57317766E-08 -0.62038312E-08  0.26935952E-07 -0.31490631E-07
 -0.37585303E-05  0.19787094E-07  0.14441451E-07 -0.13751311E-07 -0.64800317E-08
 -0.99727806E-09 -0.34432536E-08  0.21121392E-08 -0.14233326E-06 -0.37223424E-05
  0.49626770E-07 -0.18390045E-07  0.74481398E-08 -0.99511661E-08 -0.13616697E-08
  0.35946065E-08  0.40897661E-08  0.68420679E-07 -0.37937313E-05  0.15987679E-07
 -0.10117757E-07 -0.21582494E-07 -0.10133214E-08 -0.11866417E-07 -0.71383920E-08
 -0.18583409E-07 -0.52211549E-08 -0.37831389E-05 -0.66840087E-07 -0.72576483E-09
  0.32774803E-08 -0.38827529E-09  0.60161209E-08  0.95443684E-08  0.17816428E-07
 -0.52331081E-07 -0.37452600E-05  0.12695887E-07  0.10384301E-07 -0.25053149E-07
 -0.10515054E-07  0.88272170E-08  0.75796573E-08  0.86346266E-09 -0.79227027E-08
 -0.35941440E-05 -0.16587241E-08  0.16746542E-07  0.38225368E-07 -0.23847214E-07
  0.42805037E-08 -0.81332807E-08  0.17138638E-08  0.81693861E-09 -0.37113235E-05
 -0.26964294E-07  0.49646116E-08 -0.32382048E-07  0.17036656E-08  0.32638387E-08
  0.14023380E-07  0.18698739E-07  0.39094814E-07 -0.38254867E-05  0.34103788E-07
 -0.62196876E-09 -0.17331261E-07  0.18882927E-07  0.13316628E-07 -0.83062162E-08
  0.26141120E-07  0.61216258E-07 -0.36165629E-05  0.34653943E-09  0.11615997E-07
 -0.19471725E-07 -0.66807637E-08  0.11397512E-07 -0.61302507E-08  0.90720658E-08
 -0.80879743E-07 -0.37680476E-05  0.60038771E-07  0.11316486E-07 -0.16408558E-07
 -0.71611467E-08  0.69008425E-08  0.41114091E-08 -0.41800772E-09  0.15184885E-06
 -0.37748474E-05  0.44942121E-07 -0.35335482E-07 -0.31921104E-09  0.66837083E-08
  0.49560187E-08  0.11415728E-07  0.16459737E-08 -0.65259549E-07 -0.37714491E-05
  0.93617253E-08 -0.14910622E-07 -0.10492233E-07 -0.20994484E-08  0.12445699E-07
 -0.53535473E-08  0.72069635E-08  0.17394755E-07 -0.38151834E-05  0.25710725E-07
 -0.20040197E-07  0.54158311E-07 -0.36261684E-07 -0.20847767E-07 -0.52805486E-08
  0.12172407E-08  0.42349039E-07 -0.36824018E-05 -0.25247283E-07 -0.14837860E-07
  0.16585385E-07 -0.64326043E-08 -0.85031056E-08  0.84734210E-08  0.57474958E-08
 -0.49627753E-05 -0.16151088E-04  0.11862503E-05  0.22464599E-05  0.91803113E-05
 -0.29502011E-05 -0.20667996E-05 -0.17999266E-05 -0.48856119E-05 -0.99964809E-06
 -0.16526365E-05  0.28871274E-06  0.15315060E-05  0.22751022E-05 -0.17704101E-05
  0.55913386E-05  0.88241800E-06  0.58183876E-06 -0.34774388E-05  0.82083749E-06
 -0.49183419E-05 -0.49744195E-05  0.16825980E-04  0.98530008E-06 -0.27792521E-05
 -0.97964825E-06  0.40964554E-05 -0.56416733E-06 -0.74092103E-06  0.15483869E-05
 -0.19934404E-05  0.55273949E-05 -0.14949264E-05 -0.24131102E-05  0.31160784E-06
  0.21594966E-05  0.76318165E-06  0.28718518E-05  0.19569130E-05 -0.10164396E-05
 -0.11060012E-05  0.74764144E-06 -0.43015799E-05  0.46325978E-05  0.75383914E-06
  0.40751106E-05 -0.80325779E-05  0.18831346E-05  0.20247608E-05  0.80987528E-05
 -0.35117274E-05 -0.63108656E-05  0.60626807E-06 -0.18647869E-05 -0.11534639E-04
  0.88936888E-04  0.65571726E-05 -0.54204295E-05 -0.47233067E-05  0.15880309E-05
  0.26763814E-05 -0.13305717E-05  0.19290739E-05 -0.81476370E-06  0.23370360E-05
  0.17352974E-06 -0.61203279E-05  0.11762565E-04  0.61953973E-06  0.45669833E-06
 -0.23186668E-05  0.21951014E-06  0.52961168E-06 -0.85708898E-05 -0.17911598E-05
  0.31906740E-06  0.11904541E-05  0.15846305E-05  0.14975846E-05  0.18164459E-07
 -0.51951106E-05 -0.59853391E-05 -0.34779423E-05 -0.26000681E-05 -0.57108593E-07
 -0.68550686E-05 -0.35733095E-06  0.12058213E-05  0.28982193E-06  0.19109874E-05

 -0.83879001E-08  0.42702523E-06  0.12361719E-07  0.98701729E-09 -0.12974123E-07
  0.29328218E-08  0.97094863E-08  0.89639969E-08 -0.76556909E-08  0.80343248E-07
  0.40793777E-06 -0.40460678E-07 -0.73695730E-08 -0.18349551E-09  0.32227174E-07
  0.13355647E-07 -0.11768079E-07  0.14617044E-09 -0.23579190E-07  0.50895293E-06
  0.10236791E-06 -0.12930816E-07  0.14903517E-07 -0.31463297E-07 -0.41869684E-08
  0.28595238E-07  0.21576973E-07  0.69412257E-08  0.55613430E-06 -0.12703549E-07
 -0.25665029E-07 -0.97104549E-08  0.14159080E-08  0.68699766E-08  0.21519430E-07
 -0.20078113E-07  0.69588756E-07  0.49444614E-06 -0.95791947E-07  0.29484299E-07
 -0.79243706E-08  0.29130844E-08  0.79248860E-08 -0.17286852E-07  0.15550265E-07
 -0.97800138E-08  0.48236880E-06  0.10043693E-06  0.30687673E-07 -0.20150528E-07
  0.27725779E-07 -0.83283156E-08 -0.52511657E-08  0.25591836E-07  0.45290536E-07
  0.49942454E-06  0.11304900E-06 -0.11131368E-07  0.38154298E-07 -0.33062205E-08
 -0.92379648E-08  0.12528524E-07  0.71860618E-08 -0.47455881E-07  0.51368681E-06
  0.38614342E-08 -0.11763334E-07 -0.99837962E-08  0.26358212E-07 -0.14014722E-07
  0.10901070E-07 -0.33073681E-08 -0.78417706E-08  0.47957608E-06  0.55584123E-07
  0.20848944E-07  0.52472067E-08 -0.28760459E-07 -0.58040938E-08 -0.41952770E-08
  0.26637555E-08 -0.14440083E-07  0.47332989E-06 -0.11288268E-06  0.71836882E-08
  0.29145411E-07  0.35295280E-09  0.12650731E-07  0.40412785E-09  0.11501920E-07
  0.70315544E-08  0.46396407E-06  0.40243242E-07 -0.97784763E-08 -0.11840121E-09
 -0.11811098E-07  0.89773081E-08 -0.18756966E-08  0.19638371E-07 -0.13006204E-06
  0.58529774E-06  0.78181212E-07 -0.43171105E-08  0.13220942E-07 -0.14604090E-07
 -0.14644946E-07 -0.14582830E-07 -0.28284898E-07  0.10036552E-06  0.47905834E-06
 -0.37885557E-07 -0.14166828E-07 -0.92436733E-08  0.96794899E-08  0.12008790E-07
 -0.10002286E-07  0.48773680E-08  0.35587623E-07  0.40854379E-06 -0.12314909E-06
  0.14159738E-07  0.33219604E-07 -0.17831383E-07 -0.10821516E-07  0.37368005E-08
 -0.14876218E-07 -0.23308031E-07  0.37429800E-06 -0.44225215E-07  0.32073282E-07
 -0.44384775E-07 -0.21629410E-08  0.17853798E-08 -0.13686034E-07 -0.14396376E-07
  0.46771999E-06 -0.15919059E-04 -0.71111849E-05 -0.15009547E-05  0.38727499E-07
  0.10990308E-04 -0.35539805E-05  0.83385986E-07 -0.30947099E-05  0.60177538E-05
 -0.96475886E-06  0.25199111E-05 -0.17276029E-05  0.12950265E-05 -0.38693066E-05
 -0.72402830E-06  0.12037421E-05 -0.20508152E-05  0.57201591E-05 -0.68970451E-05
  0.79225283E-08 -0.44013052E-05 -0.36259083E-05  0.71482538E-05  0.33216697E-05
  0.55273381E-05 -0.21359713E-05  0.14826685E-05  0.40215821E-05 -0.41396728E-05
 -0.89438063E-06  0.26105403E-05 -0.67127513E-06  0.20923595E-06 -0.72322773E-05
 -0.20546385E-05 -0.78385081E-05  0.46951778E-05  0.23027245E-05  0.83422357E-06
 -0.57958032E-05  0.73079302E-05 -0.42475563E-06  0.20854515E-05 -0.11214623E-05
  0.11273556E-04  0.30861580E-05 -0.27921522E-05  0.91265388E-06 -0.43023489E-05
  0.11720982E-05 -0.29678154E-05  0.59761960E-05  0.10121772E-05  0.11694949E-04
  0.65571726E-05  0.98866925E-04  0.37516441E-05 -0.32837501E-05  0.22210319E-05
  0.48354417E-05  0.31085355E-05  0.60204145E-05  0.14688334E-05  0.22171591E-05
  0.95204710E-05  0.17077981E-05 -0.11927309E-07  0.42341297E-05  0.63988937E-06
  0.12741948E-05  0.46600062E-05  0.61401029E-05 -0.41372838E-05 -0.26948646E-05
 -0.19355931E-05 -0.16404588E-05 -0.75209483E-05  0.35511132E-05 -0.18253156E-05
 -0.18039208E-05 -0.37540210E-05  0.18685265E-06 -0.99173988E-05 -0.60125895E-05
 -0.15837339E-05  0.37474558E-05 -0.34225235E-05  0.43088401E-08  0.76035402E-06

  0.14626441E-06  0.95341316E-07 -0.28482628E-07 -0.63731518E-09 -0.22066499E-07
  0.18990395E-08 -0.24142505E-07  0.50073212E-09 -0.81190755E-08 -0.16218395E-07
  0.16173352E-06  0.29531284E-07  0.65764292E-08  0.21884252E-07 -0.79455325E-08
 -0.18107544E-07  0.52142309E-08 -0.41020805E-08 -0.13343511E-06  0.95096142E-07
 -0.26332271E-08  0.29957558E-07 -0.18277490E-07 -0.18670705E-07  0.25664894E-07
 -0.15326265E-07  0.22403296E-08 -0.30191250E-06  0.17355162E-06 -0.80221396E-07
  0.37298725E-07 -0.19011997E-07  0.65060171E-08 -0.25176744E-07 -0.33124424E-07
  0.15129524E-07 -0.21586256E-06  0.17692237E-06  0.54180351E-07 -0.50657466E-07
  0.12635273E-07 -0.27715011E-07  0.25273468E-07  0.17015117E-07 -0.71116539E-08
  0.10708126E-06  0.77903925E-07 -0.18363010E-08  0.56895547E-07 -0.12534659E-07
 -0.55566711E-08  0.47055099E-08  0.95800372E-08 -0.75052944E-08 -0.30528924E-07
  0.19869180E-06 -0.29061698E-07 -0.26161018E-07 -0.62433270E-08  0.35004885E-08
  0.21271361E-07  0.34882551E-07 -0.36874895E-08 -0.18835834E-07  0.15939448E-06
 -0.94015679E-07  0.36421335E-07  0.17811673E-07 -0.31631462E-07 -0.29396079E-07
 -0.26580692E-07 -0.13220551E-07 -0.19180910E-06  0.16510473E-06  0.60713130E-08
 -0.42870082E-07 -0.90796161E-08  0.16941278E-07 -0.14870873E-07  0.30950851E-07
  0.30317788E-08  0.10275255E-06  0.83022012E-07  0.28085003E-07  0.73621589E-08
  0.31647349E-07 -0.23962282E-07 -0.52765719E-07 -0.45821486E-07  0.27951060E-08
  0.60402966E-07  0.12997715E-06  0.35038516E-07 -0.76540862E-07 -0.17957523E-07
  0.13958212E-07  0.44649345E-07  0.45847161E-07 -0.27702089E-08 -0.22723529E-06
  0.18813885E-06  0.44503637E-07  0.23157861E-07 -0.25435577E-07  0.10570276E-07
  0.34731388E-07  0.63269029E-08 -0.93008649E-08  0.14211186E-06  0.13269992E-06
 -0.20918327E-07  0.88739025E-07 -0.21286630E-07  0.15196626E-07  0.15237451E-07
 -0.23441438E-07  0.41789624E-08  0.13924931E-06  0.16743948E-06  0.56077040E-07
 -0.55355324E-07  0.41671325E-07 -0.55097937E-08 -0.32108866E-08  0.10262061E-08
 -0.22123615E-08  0.25552432E-06  0.10890787E-07 -0.17251907E-07  0.17077521E-08
 -0.18889168E-07 -0.16064488E-07 -0.24325495E-07  0.14391051E-08  0.24465957E-07
  0.96924550E-05  0.25843830E-05  0.31448734E-06 -0.12081819E-04  0.63975992E-05
  0.24631731E-05  0.51479930E-05 -0.54640807E-05 -0.48158622E-05  0.30629597E-06
  0.70973430E-05  0.32469598E-05  0.14357117E-04 -0.60227720E-05 -0.18534185E-05
 -0.11427810E-05 -0.46840402E-06  0.15996580E-05 -0.28837078E-05 -0.30541038E-05
  0.20476146E-06  0.11664760E-04 -0.77308947E-05  0.10843816E-05  0.24032720E-05
  0.44438069E-05 -0.23104154E-05 -0.27924156E-05  0.27042919E-05 -0.15212493E-05
  0.10064556E-05  0.19800503E-05 -0.13399006E-05  0.59022768E-05 -0.59539760E-05
 -0.20336866E-06  0.65722654E-06 -0.81825002E-06 -0.54705097E-06  0.31114901E-05
 -0.83688667E-06 -0.21903736E-05 -0.23103772E-05  0.57764462E-05 -0.11416646E-05
  0.10527761E-04  0.20426173E-05  0.14864186E-05  0.79721481E-05 -0.28322835E-05
 -0.36870506E-05 -0.37868870E-05  0.15801161E-05  0.85264234E-06 -0.80822157E-06
 -0.54204295E-05  0.37516441E-05  0.12731575E-03 -0.26083541E-04 -0.24697124E-04
 -0.19333378E-04  0.45155606E-05 -0.15403786E-05 -0.30847386E-05 -0.99762461E-06
  0.13942551E-05  0.16241444E-05  0.77639989E-07  0.27160665E-06 -0.20634014E-05
  0.40118763E-05  0.18352838E-05  0.13879597E-05 -0.32612859E-05  0.36237124E-05
  0.37071252E-05  0.18917569E-05 -0.38081710E-05 -0.30850395E-07  0.66595323E-05
 -0.11402119E-05  0.62580033E-05 -0.28928495E-05 -0.16435634E-05 -0.27514230E-05
  0.23814488E-05 -0.11873860E-05 -0.69931143E-06 -0.47907237E-05 -0.26493955E-06

 -0.15678297E-08 -0.95695076E-06 -0.32663208E-08 -0.43327975E-07  0.14840098E-06
 -0.16036018E-07 -0.22186096E-07  0.17357013E-07  0.53585676E-08 -0.12000080E-07
 -0.79645338E-06  0.37397489E-07  0.15226068E-07 -0.56609630E-07  0.10309726E-07
  0.35909512E-07 -0.50651568E-08  0.13014803E-07  0.29970713E-07 -0.95665463E-06
 -0.65688650E-07 -0.15459266E-07 -0.47671800E-07  0.74870113E-08  0.23961847E-07
  0.94448530E-08 -0.33496203E-07  0.42534478E-07 -0.93546490E-06 -0.34109906E-08
 -0.17541528E-07  0.68109426E-08 -0.14791550E-07 -0.45627893E-08 -0.77619575E-08
  0.25354856E-08  0.37844163E-07 -0.10293969E-05  0.28114989E-08 -0.55637302E-08
 -0.18885949E-07 -0.11141602E-07 -0.17969974E-07 -0.11265902E-07  0.25977688E-07
 -0.15172855E-07 -0.68098991E-06 -0.61082998E-07 -0.63178987E-08  0.10249719E-06
 -0.19837058E-07 -0.39753286E-07  0.24962615E-08 -0.16133935E-07  0.19850703E-07
 -0.87379505E-06  0.10478148E-07  0.35254824E-08 -0.44261808E-07  0.16758300E-07
  0.30187376E-08 -0.70832745E-08 -0.22612796E-07 -0.31778617E-07 -0.10381174E-05
  0.47093634E-07  0.23002490E-07  0.12108659E-07 -0.25418154E-07  0.21164288E-07
 -0.14044039E-07  0.50954554E-08  0.68052744E-07 -0.10094378E-05  0.37536092E-07
  0.99917071E-09 -0.17523990E-07  0.23896331E-08 -0.29429745E-07 -0.14747454E-07
 -0.50915031E-07 -0.16117362E-07 -0.93397620E-06  0.27600313E-07  0.24485586E-07
 -0.70800426E-07  0.55698315E-08  0.92582836E-08  0.90452108E-08  0.10618596E-07
 -0.36099559E-07 -0.92057398E-06 -0.67450618E-07  0.17393548E-07 -0.18993475E-07
  0.70835858E-08 -0.12498436E-07 -0.19660909E-07  0.23163178E-07  0.10039029E-06
 -0.90023541E-06 -0.11168621E-06 -0.59950370E-08  0.11485493E-07 -0.63253486E-08
  0.10898784E-07  0.31573754E-07  0.49232694E-08 -0.26710533E-07 -0.98505774E-06
 -0.58765608E-09  0.18780034E-08 -0.42800507E-07  0.23343139E-07 -0.23530489E-07
  0.82922278E-08 -0.11877973E-07 -0.10729608E-06 -0.12727288E-05 -0.50917184E-07
  0.23667771E-07 -0.17041633E-07 -0.12913386E-07  0.11187053E-07 -0.10759125E-07
  0.40581429E-09 -0.23922738E-07 -0.72584040E-06  0.59736119E-07 -0.25188515E-07
  0.58806396E-07 -0.93511978E-08  0.42234061E-08  0.26680222E-08  0.47852011E-08
 -0.59763121E-05  0.57506937E-05 -0.88055498E-05  0.31395726E-05 -0.40163223E-05
  0.24644065E-05 -0.65716385E-06  0.80287755E-06  0.41892380E-05 -0.32735109E-07
 -0.11993417E-05  0.38791594E-05 -0.39017981E-05  0.57360227E-05 -0.13755839E-05
 -0.92597000E-07 -0.97626922E-06 -0.34937401E-05 -0.30029511E-05  0.97640606E-05
  0.10347665E-05 -0.28826338E-05 -0.37443463E-05  0.10386448E-05 -0.75416283E-07
 -0.17159600E-05  0.43400596E-05  0.17397336E-05 -0.12457378E-04  0.15419297E-05
  0.23950762E-05  0.38927607E-05 -0.11442652E-05 -0.18709860E-05 -0.68468673E-06
  0.74342767E-06  0.71900331E-06 -0.19331534E-05  0.16612674E-05 -0.28999260E-05
  0.24577771E-05  0.10026757E-05  0.51478458E-05  0.17917927E-06  0.10594379E-05
 -0.33039271E-06  0.71258720E-05 -0.11123514E-05 -0.36749816E-05  0.14662091E-04
 -0.22619545E-05 -0.35634855E-05  0.23109187E-05 -0.38831644E-05 -0.38236692E-05
 -0.47233067E-05 -0.32837501E-05 -0.26083541E-04  0.11565359E-03 -0.27019356E-04
 -0.19180453E-04 -0.64947665E-05  0.35879040E-05  0.49840921E-05 -0.73244228E-05
  0.17173348E-05 -0.13842003E-05 -0.89658890E-05  0.19747943E-06  0.14589840E-05
 -0.24372226E-05  0.42880666E-05 -0.14827207E-05 -0.17915152E-05  0.35450207E-05
  0.23831608E-05  0.48142417E-05 -0.66840133E-05 -0.94074971E-06 -0.33314960E-05
  0.97803482E-06 -0.17636819E-05  0.20804165E-04 -0.33777875E-05  0.28468318E-05
  0.34524026E-05 -0.11508981E-05 -0.19645432E-05  0.21343293E-05 -0.45046254E-05

 -0.52034832E-07  0.64394010E-06  0.13297017E-06  0.23075837E-07 -0.16689616E-07
 -0.19125389E-07  0.67185026E-08 -0.77567193E-08  0.16472469E-07  0.59274094E-07
  0.59406700E-06 -0.40028043E-07 -0.80413741E-09  0.12274584E-07 -0.74283113E-08
  0.97144628E-08  0.30800459E-07 -0.18942466E-07  0.15226118E-07  0.64768064E-06
  0.10562558E-06 -0.22683518E-07  0.26576388E-07  0.59767547E-08 -0.85562645E-08
  0.12468273E-08  0.85207073E-08 -0.58899619E-08  0.62674425E-06  0.51604010E-07
  0.35283067E-08 -0.11965871E-07  0.37772961E-07  0.70800606E-08  0.28258168E-07
  0.55303172E-08  0.25652189E-07  0.56840778E-06  0.64931218E-07 -0.84458980E-08
 -0.55956090E-08  0.83452944E-07 -0.83054158E-08 -0.12418762E-07  0.21349162E-07
 -0.46633456E-07  0.59996530E-06  0.10385244E-06  0.54324495E-08 -0.25950637E-07
  0.93702816E-09 -0.36810850E-08 -0.18449833E-08  0.20632450E-07  0.64010462E-07
  0.56013272E-06  0.59206928E-07  0.21142709E-07  0.13860281E-07 -0.18125214E-07
 -0.47132714E-08  0.45899095E-08 -0.34880100E-08  0.34061177E-07  0.64771904E-06
  0.11842250E-06 -0.34451201E-07 -0.18846710E-07  0.53505403E-07 -0.76472857E-08
  0.67085715E-08 -0.21761428E-08  0.43430785E-07  0.70946499E-06 -0.10056834E-07
  0.28770453E-07  0.11820438E-07 -0.11889353E-07  0.90315236E-08 -0.32695434E-08
  0.15023437E-07  0.52304067E-07  0.63995086E-06 -0.74917661E-07 -0.10400425E-07
 -0.18610382E-08  0.33893751E-08  0.14391172E-07  0.53714592E-08  0.54243677E-08
  0.19457979E-07  0.63988743E-06 -0.61516424E-07  0.21601478E-07  0.17830497E-07
 -0.27618697E-07 -0.23126953E-08 -0.85466311E-08 -0.82892541E-08  0.36987555E-07
  0.62369522E-06  0.26191722E-07  0.10683512E-07  0.13316355E-07  0.11762504E-07
 -0.39642175E-08 -0.80885211E-08  0.32969947E-07  0.48869993E-07  0.59098451E-06
  0.66758743E-07  0.33149676E-07  0.24715161E-07 -0.97531396E-07 -0.72111928E-09
 -0.22072809E-07  0.16240102E-07  0.37961390E-07  0.62075368E-06 -0.22718528E-07
  0.11229903E-07 -0.12948678E-07  0.30806510E-07 -0.82296513E-08  0.59848321E-08
 -0.87322313E-08 -0.30644788E-07  0.61091916E-06 -0.35977954E-07 -0.10054079E-07
 -0.59648242E-08  0.30923379E-07  0.12825429E-07 -0.12583648E-09 -0.46693318E-07
 -0.22232852E-06 -0.76292436E-05  0.85488169E-05  0.21222406E-05  0.24455795E-05
 -0.91508068E-05  0.21546878E-06  0.28676045E-06  0.43434608E-05  0.15517187E-05
 -0.21127035E-05 -0.65779066E-05 -0.13165567E-05 -0.14476083E-06  0.75515935E-05
 -0.67288479E-06  0.19897597E-05  0.21680803E-06  0.19797319E-05  0.99779863E-06
 -0.20795074E-05  0.38104674E-06  0.41470408E-05 -0.16456188E-05 -0.31980139E-05
 -0.78726260E-06  0.11133964E-05  0.25616420E-06  0.28946281E-05 -0.48803642E-05
 -0.16675962E-05 -0.24096216E-05  0.81402145E-06 -0.11062471E-05  0.30503355E-05
 -0.70023694E-06 -0.27204563E-05 -0.35605543E-06 -0.68573065E-05 -0.16750503E-05
  0.16496490E-05  0.25377993E-05 -0.11390872E-06 -0.43872650E-08 -0.12379108E-06
 -0.28470330E-05 -0.65440924E-05 -0.57323864E-05 -0.31624168E-05 -0.38557566E-05
  0.98303272E-05  0.89121448E-06 -0.36919692E-05 -0.57365000E-05  0.27653583E-05
  0.15880309E-05  0.22210319E-05 -0.24697124E-04 -0.27019356E-04  0.92984978E-04
  0.39176189E-05  0.13077642E-04  0.40788076E-05 -0.44121744E-06  0.23979595E-05
 -0.52282062E-06  0.27235951E-05 -0.65552038E-07 -0.39627441E-06 -0.25794253E-05
  0.27052817E-06 -0.62710419E-06 -0.24207395E-06  0.30769571E-05 -0.47243430E-05
 -0.22866529E-05 -0.57696778E-05  0.52151346E-05  0.18268819E-05  0.36597961E-05
  0.16952705E-05 -0.15387081E-05 -0.36375920E-05  0.68947221E-05 -0.21656372E-05
 -0.11166839E-05  0.40081931E-05 -0.15058308E-05 -0.33084977E-06  0.35611178E-06

 -0.52640260E-07 -0.11469537E-06  0.22328126E-07  0.85168818E-07 -0.73877193E-08
 -0.17457512E-08 -0.13317050E-07  0.24782655E-08  0.11112494E-07  0.41497814E-07
 -0.12875473E-06 -0.24352886E-07  0.44505643E-08  0.18140520E-07  0.10632582E-08
  0.97887561E-08 -0.17655159E-07  0.75355582E-09  0.63203664E-07 -0.95315236E-07
  0.19762045E-07 -0.16296689E-07  0.13550272E-07  0.10776926E-07 -0.38467531E-07
 -0.77996520E-08  0.15947556E-07 -0.28385745E-07 -0.67600259E-07 -0.19279316E-07
 -0.10900193E-07 -0.36592550E-07  0.41882758E-08 -0.11358382E-07 -0.22227195E-07
 -0.72848054E-08 -0.12259886E-07 -0.71419158E-07 -0.13462950E-07  0.39517164E-07
 -0.25586752E-08  0.15497876E-07  0.32685637E-07 -0.47308545E-08 -0.43641398E-07
  0.83694214E-07 -0.22160752E-06  0.42540381E-07 -0.20561879E-07 -0.82446197E-08
  0.15352380E-07 -0.24997060E-07 -0.12448827E-07  0.42633010E-08  0.60033951E-08
 -0.69444052E-07  0.53387924E-07  0.25228823E-07  0.43806465E-07 -0.39682089E-09
 -0.38848916E-07  0.17107516E-07  0.20649096E-08 -0.73261604E-08 -0.12436529E-06
 -0.87166838E-08  0.18173286E-07 -0.25862015E-07  0.61048319E-08  0.74859002E-08
 -0.10260665E-07 -0.78859846E-08 -0.72134138E-08 -0.11943943E-06 -0.49788923E-07
 -0.11649247E-07 -0.10052780E-07  0.10700447E-07  0.13548235E-07  0.79017679E-08
  0.10470486E-07 -0.62809759E-07 -0.13495874E-06 -0.10431296E-07 -0.28071144E-07
  0.26328838E-07  0.12055643E-07 -0.61067637E-09 -0.10568826E-07  0.14422173E-07
  0.79600984E-08 -0.13566875E-06 -0.18242618E-07 -0.16955344E-07  0.88827429E-08
  0.34877179E-08 -0.79357066E-08 -0.20252430E-07  0.56320459E-08 -0.30679886E-07
 -0.12172914E-06 -0.99729161E-07 -0.17737339E-08  0.39610865E-07 -0.25908898E-07
 -0.65816071E-08  0.37843317E-07  0.30987242E-07 -0.70674717E-07 -0.18997274E-06
 -0.33220018E-07 -0.25427346E-07  0.14576314E-07 -0.77381069E-08  0.24099063E-07
 -0.75222940E-08 -0.68731551E-08 -0.22299352E-07 -0.71049243E-07  0.16058198E-07
 -0.12700345E-07 -0.10753311E-07 -0.77335291E-08 -0.16274871E-08  0.18593702E-07
  0.19034630E-07  0.32466636E-07 -0.14959201E-06  0.20059626E-07  0.35433970E-08
 -0.39072219E-08  0.67215397E-08  0.47460466E-07  0.15306943E-07 -0.10089342E-08
 -0.17013416E-06 -0.69281388E-05  0.30513006E-05 -0.76608986E-06 -0.37037017E-05
  0.55182843E-05  0.12769571E-05 -0.34684344E-07  0.15212699E-05 -0.69856300E-05
 -0.45383587E-05 -0.42518537E-06 -0.30130226E-05  0.30372113E-05 -0.37941195E-06
 -0.58753470E-05 -0.70195871E-06 -0.58675289E-05  0.50100882E-05 -0.23267461E-05
  0.23511764E-05 -0.30019076E-05  0.11535849E-05 -0.24303477E-06  0.23477901E-05
  0.10094596E-05 -0.11386028E-05  0.73592198E-05  0.50372091E-05  0.52377998E-06
 -0.22232721E-05  0.17874034E-05  0.15026227E-05 -0.33044757E-05  0.88406417E-06
 -0.30260275E-05 -0.65209988E-05  0.71512184E-05 -0.76666588E-06  0.31431128E-05
  0.40134274E-06  0.11897188E-05  0.46524362E-05 -0.41029155E-05  0.29403133E-05
 -0.16897847E-05  0.24066615E-05 -0.61504966E-06 -0.23374856E-05 -0.36551655E-05
  0.16665366E-05 -0.21196461E-05 -0.30877070E-05 -0.70411168E-06  0.76173544E-05
  0.26763814E-05  0.48354417E-05 -0.19333378E-04 -0.19180453E-04  0.39176189E-05
  0.80061345E-04  0.41409887E-05  0.82283019E-06  0.19575160E-05  0.34593725E-05
 -0.36792051E-06  0.35183557E-06  0.11240507E-05  0.92933206E-06 -0.32251558E-05
  0.17998543E-05  0.23241100E-06 -0.18492399E-05  0.33655291E-05  0.80004069E-06
  0.11537918E-05  0.57969631E-06 -0.20562616E-06  0.15678681E-06 -0.62545590E-06
 -0.20170041E-05 -0.32461551E-05 -0.84875167E-05 -0.19627082E-05 -0.10836801E-05
  0.65414527E-06  0.64633210E-06 -0.29037545E-05  0.71479337E-06  0.14476583E-05

  0.46104850E-08  0.12610315E-06  0.15666794E-07 -0.29727616E-08 -0.75598451E-08
  0.37225295E-08  0.13198542E-07 -0.77995449E-08  0.11167849E-08  0.54078449E-08
  0.17596275E-06  0.83264505E-07 -0.92896928E-08  0.35380313E-08  0.22815738E-07
  0.81286468E-10 -0.10929405E-07  0.87526629E-08  0.65108917E-07  0.12941403E-06
  0.14837187E-10 -0.18976692E-07  0.98480877E-08 -0.14505413E-07 -0.14530978E-07
 -0.24779938E-07  0.87897565E-08 -0.10160920E-06  0.20418006E-06 -0.64244613E-07
 -0.42776797E-07 -0.28077210E-07  0.25618124E-07  0.21836597E-07  0.46757318E-07
 -0.95394515E-09  0.10661739E-06  0.12882357E-06 -0.39937447E-07  0.22699529E-07
 -0.16588555E-07 -0.63705003E-08  0.71730946E-08 -0.14458955E-07  0.12776115E-07
  0.38691259E-07  0.11547492E-06 -0.50343880E-07  0.20486396E-07 -0.17009275E-07
 -0.68603396E-08  0.73383461E-08  0.42989684E-08 -0.54286954E-08  0.24792229E-07
  0.16216097E-06  0.89110871E-07  0.51891376E-07 -0.11753125E-07 -0.50993805E-08
 -0.20298523E-07  0.33352140E-08 -0.48267064E-08 -0.69961725E-07  0.18280653E-06
  0.67440110E-07 -0.42785264E-07 -0.53541975E-08  0.46676604E-08 -0.32209037E-07
 -0.33064621E-08  0.45668420E-08  0.10505431E-07  0.11375549E-06  0.97907569E-08
  0.15974111E-07 -0.21533285E-07  0.28170355E-08 -0.54336150E-08  0.13197643E-07
  0.49657253E-08  0.22312396E-07  0.19475826E-06  0.73203704E-07 -0.43956019E-07
 -0.16477305E-07  0.24137692E-08  0.44695311E-08 -0.10646411E-07 -0.12603913E-08
 -0.22558441E-07  0.77606148E-07  0.43015099E-07  0.15828844E-07 -0.21987847E-07
 -0.69026126E-08  0.18308133E-07 -0.24497747E-07 -0.21508043E-08 -0.74383030E-08
  0.13158149E-06  0.24751640E-08 -0.12897571E-08  0.33641720E-07 -0.69493174E-08
  0.20751736E-07  0.37011083E-07 -0.10239516E-07  0.60974391E-08  0.91084347E-07
  0.88608981E-07 -0.32792851E-07  0.12250565E-07 -0.34317992E-07  0.55377866E-08
  0.25319816E-07  0.11153508E-07  0.86021786E-07  0.88776331E-07  0.22904340E-07
  0.19342120E-07 -0.10965847E-07 -0.73901973E-08  0.36524434E-08 -0.59071908E-08
 -0.25362159E-07 -0.20162177E-07  0.90910918E-07  0.51983077E-07 -0.24430050E-07
  0.94733146E-08  0.87915653E-08  0.66922559E-09 -0.12901732E-07  0.50186079E-08
  0.47769392E-06  0.47890816E-06  0.41473787E-06 -0.51959907E-05  0.80042442E-06
 -0.13211205E-05  0.14107654E-05 -0.38213182E-05  0.16082800E-05  0.23088824E-05
  0.26932681E-05  0.23592615E-05 -0.17902415E-05 -0.28909164E-05  0.21994717E-05
 -0.13367271E-06  0.91963311E-05 -0.14206167E-05  0.18645327E-05 -0.23799256E-05
 -0.29205635E-06  0.34782619E-05 -0.15276085E-05 -0.21160650E-05  0.15605656E-05
  0.31710278E-05 -0.36636870E-05 -0.39808855E-05  0.16397146E-05 -0.48400121E-06
 -0.56663515E-05  0.60459216E-06  0.79421184E-06 -0.24880974E-05 -0.15076424E-05
 -0.55875624E-06 -0.90184907E-05  0.37704473E-05 -0.18456053E-05  0.72958502E-05
  0.46344408E-06 -0.92148158E-06 -0.13880461E-05 -0.15295888E-05  0.14527683E-05
 -0.63051802E-06 -0.24952738E-05 -0.38510036E-06 -0.55993013E-06  0.15084170E-05
 -0.12190598E-05 -0.68361307E-05  0.34801652E-05 -0.20179991E-05  0.41888843E-05
 -0.13305717E-05  0.31085355E-05  0.45155606E-05 -0.64947665E-05  0.13077642E-04
  0.41409887E-05  0.74254662E-04 -0.10587296E-04  0.47503969E-05 -0.22011421E-05
 -0.20569804E-05  0.66192835E-05 -0.25743435E-05 -0.11826628E-05  0.60330378E-05
 -0.53511729E-06 -0.49034894E-05  0.57599500E-05 -0.10516981E-05 -0.25175340E-05
  0.37177482E-05 -0.29306711E-05  0.63735542E-05  0.10514883E-05 -0.48696220E-05
  0.22925980E-05  0.20715339E-05 -0.11371259E-05  0.16007242E-05 -0.80727197E-05
  0.53536854E-05  0.10203343E-06 -0.22823773E-05 -0.94014105E-06 -0.21685945E-05

 -0.80103120E-08  0.55224330E-06 -0.89292274E-08  0.50569408E-08  0.10086320E-07
 -0.20043550E-09  0.14810109E-07  0.15614417E-07  0.17406792E-08 -0.51147243E-07
  0.66432102E-06 -0.34780473E-07 -0.21394471E-07  0.40213114E-07 -0.11687697E-07
  0.27941865E-08 -0.52589516E-08 -0.48997021E-08  0.17922295E-07  0.59691328E-06
 -0.42050770E-07 -0.52555954E-08 -0.28587600E-07  0.80723132E-08  0.16396785E-07
  0.11127985E-07 -0.26160400E-07 -0.25967933E-07  0.56513553E-06 -0.68576076E-07
  0.91248444E-08 -0.28156970E-07 -0.21673693E-07 -0.35130037E-09 -0.22886045E-07
 -0.30890068E-08 -0.10560098E-07  0.60095683E-06 -0.32074321E-07 -0.11599747E-07
  0.84936521E-08  0.35626781E-08 -0.28423588E-07  0.17311471E-07  0.30730103E-07
  0.34931865E-07  0.55573519E-06  0.11481531E-06 -0.12635426E-07 -0.79708225E-09
  0.14295069E-07 -0.15751815E-07  0.15347561E-07 -0.25120122E-08  0.56828754E-07
  0.61310363E-06 -0.46385899E-07  0.19565809E-08  0.31992374E-07 -0.17660374E-07
 -0.22315690E-08  0.74025136E-08 -0.85305108E-08 -0.11944342E-07  0.49561609E-06
 -0.25475976E-07  0.75446500E-09 -0.17160342E-07 -0.76334868E-08 -0.14906082E-07
 -0.40435578E-08 -0.16403250E-07 -0.44973638E-07  0.59562294E-06 -0.53268375E-08
 -0.93374608E-08  0.77483628E-08 -0.81426470E-09  0.31172358E-08 -0.27258573E-08
  0.61263102E-08 -0.84559636E-08  0.54247123E-06 -0.23026543E-08 -0.21662057E-07
  0.72516800E-08  0.11187687E-07  0.12087471E-07  0.36825156E-08  0.13788162E-07
 -0.45259448E-07  0.50618485E-06  0.27220251E-07 -0.11418997E-07 -0.29407062E-07
 -0.64113730E-08  0.43577470E-08 -0.70228065E-09  0.54803296E-07 -0.69674866E-07
  0.56743055E-06 -0.49989168E-07  0.17231919E-07  0.35990806E-07 -0.14931524E-07
  0.27188306E-07 -0.32086951E-07  0.31236278E-08 -0.66877893E-07  0.59469790E-06
 -0.83248454E-08  0.12667482E-07 -0.14622524E-07 -0.51236692E-08 -0.86459463E-08
 -0.99397505E-08  0.46335265E-08  0.16718616E-08  0.67814297E-06 -0.83128341E-07
  0.18862391E-07 -0.15495502E-07 -0.40485383E-08  0.26187384E-07 -0.28983521E-07
  0.72302767E-08  0.48568439E-07  0.49602911E-06 -0.65257338E-07  0.51729080E-08
 -0.15210593E-07  0.66412967E-08  0.19899643E-08  0.33619931E-08  0.41622486E-07
  0.12344842E-05 -0.30989955E-05  0.68902344E-05 -0.29428840E-05  0.24893891E-05
  0.60736142E-05  0.16178552E-05  0.56552394E-05 -0.43303276E-05 -0.36380763E-06
  0.41337358E-05 -0.30225827E-05  0.12801535E-05  0.25693554E-05 -0.46445463E-06
 -0.69897135E-05 -0.10195925E-05 -0.11492606E-05  0.35826581E-05  0.19346044E-05
  0.24191476E-05 -0.14458776E-05  0.55788353E-05  0.29551192E-05 -0.18532486E-05
  0.97869638E-06  0.75101649E-06  0.47916000E-06 -0.38709777E-05  0.34735742E-06
  0.55949586E-06  0.19780100E-06  0.33627274E-06 -0.32687815E-05  0.36354555E-05
  0.65986157E-06  0.57779903E-06 -0.30241927E-05 -0.55265718E-05 -0.30772232E-05
 -0.35355218E-05  0.55993773E-06  0.50964051E-05  0.42922686E-05  0.12805513E-05
 -0.34424666E-06 -0.64248881E-05  0.80014654E-06  0.44209692E-06 -0.88304423E-05
  0.40369818E-06 -0.15599850E-05  0.62513265E-06 -0.69375430E-06  0.37351548E-05
  0.19290739E-05  0.60204145E-05 -0.15403786E-05  0.35879040E-05  0.40788076E-05
  0.82283019E-06 -0.10587296E-04  0.62874904E-04 -0.92680942E-06 -0.17818583E-05
  0.13771477E-05 -0.18837488E-06 -0.40224867E-05  0.27963820E-05  0.30609259E-06
  0.92014436E-06 -0.31959944E-05  0.78270209E-06  0.91529443E-06 -0.34379081E-05
 -0.18161546E-05 -0.43615746E-06  0.27231099E-05 -0.18953613E-05  0.60111626E-06
  0.86262528E-06 -0.28996763E-05  0.66359931E-06 -0.23926464E-05  0.61536769E-06
 -0.20785418E-05  0.15496153E-05  0.18902769E-06 -0.37835874E-06  0.36053860E-06

  0.21748630E-06  0.11290981E-05 -0.29012139E-07 -0.68497367E-07 -0.22087874E-07
  0.32702489E-07 -0.33704480E-08  0.34121496E-07 -0.31053936E-07  0.19042250E-06
  0.10495168E-05 -0.84070811E-07  0.61557358E-07  0.17931901E-07 -0.41153954E-07
  0.25809639E-07 -0.19598448E-07  0.38385941E-08  0.34756161E-07  0.11166476E-05
 -0.14345673E-07 -0.20854156E-07 -0.10499948E-07 -0.11010406E-07  0.16110561E-07
 -0.20491422E-08 -0.73294402E-09 -0.34800012E-07  0.11314846E-05 -0.66651202E-07
  0.83767152E-08  0.12319688E-07  0.11364350E-07 -0.40100423E-07 -0.20989286E-07
  0.34826523E-07 -0.43035354E-07  0.11013023E-05  0.19964458E-07  0.16179343E-07
  0.22836536E-07 -0.35390737E-07 -0.49106562E-08  0.17247237E-08 -0.12407420E-10
  0.12798552E-06  0.13099464E-05 -0.17196358E-06 -0.35019230E-07  0.21266103E-07
  0.31479954E-07  0.28340250E-07 -0.21777171E-07 -0.22857674E-07 -0.34258709E-07
  0.11751656E-05  0.16060318E-07  0.35569844E-07 -0.23308370E-07  0.50109593E-08
 -0.42827489E-07  0.15430417E-07 -0.60718069E-08  0.86618144E-07  0.11478232E-05
  0.29762804E-07 -0.27496702E-07  0.83047825E-10 -0.26519581E-08  0.67236529E-08
  0.44072678E-08 -0.83211974E-09  0.96862744E-07  0.11116351E-05 -0.82617218E-07
 -0.38406694E-07 -0.13460178E-07  0.27875335E-07 -0.52808951E-08  0.14272982E-07
  0.32561012E-08  0.96141968E-08  0.12390666E-05 -0.12813031E-06  0.22668715E-08
 -0.25421481E-07  0.75306139E-08  0.17987076E-07  0.88381787E-08  0.17423579E-07
 -0.22937236E-06  0.12844317E-05 -0.11599447E-06  0.14630797E-07  0.15096786E-07
  0.70263177E-09  0.76951813E-07 -0.82038943E-10  0.22257898E-08  0.15712277E-06
  0.11646282E-05 -0.16652919E-07 -0.29262555E-07 -0.15930308E-07  0.37610814E-08
 -0.29408298E-07  0.10580115E-07 -0.79928218E-08  0.43781040E-07  0.11327824E-05
  0.55861438E-07  0.29890803E-07  0.13824291E-07 -0.42430468E-08 -0.42921294E-07
 -0.41224576E-08  0.10171084E-07  0.75604862E-07  0.11456987E-05 -0.85831448E-07
  0.69265114E-08 -0.13198128E-08 -0.42478208E-07 -0.24498505E-08 -0.21426916E-07
  0.10645542E-07  0.16712628E-06  0.12254913E-05 -0.54424918E-07 -0.11263283E-07
  0.45094153E-08 -0.16328677E-07  0.24068876E-08 -0.83912246E-08  0.10466758E-07
  0.30719555E-05 -0.77136934E-05  0.96895630E-06  0.44923744E-05 -0.77645394E-06
 -0.16833283E-05  0.25046080E-06 -0.33387726E-05 -0.14872623E-05  0.12240233E-04
 -0.58372427E-05  0.29279473E-05 -0.95475467E-06  0.17386866E-05  0.76146723E-06
 -0.50479555E-05 -0.60067561E-05  0.55949731E-05  0.92285241E-06  0.83500456E-05
 -0.67311323E-06  0.12438736E-05  0.11005081E-05 -0.92628774E-06  0.18648292E-06
  0.18697336E-05 -0.80399081E-06  0.14945417E-04  0.29292005E-06  0.11914504E-05
 -0.63603191E-05  0.20504862E-05  0.28194425E-05 -0.69372250E-05 -0.13402750E-05
 -0.87166231E-06  0.62324125E-05 -0.44368999E-05 -0.53742265E-05 -0.10365621E-04
  0.28875657E-05  0.11776703E-05 -0.68728378E-07 -0.30173562E-05 -0.28822346E-05
 -0.57888210E-05  0.20590933E-05  0.22973932E-05  0.17760947E-05 -0.29973835E-05
  0.61036038E-06 -0.57860455E-05  0.14002466E-05 -0.40034334E-06  0.46574456E-05
 -0.81476370E-06  0.14688334E-05 -0.30847386E-05  0.49840921E-05 -0.44121744E-06
  0.19575160E-05  0.47503969E-05 -0.92680942E-06  0.15148211E-03 -0.14353375E-04
  0.33452162E-05 -0.15875620E-05  0.77406582E-07 -0.10075583E-08 -0.31289910E-05
 -0.47732320E-05 -0.62904735E-07  0.14372322E-04  0.11319534E-05  0.48254275E-05
 -0.23549149E-05  0.27973210E-05  0.62235057E-05 -0.21015910E-05  0.30527920E-05
 -0.14142267E-05 -0.50402236E-05  0.38572439E-05  0.26936553E-05  0.29569258E-05
 -0.44664959E-06  0.23578435E-05 -0.27209938E-05  0.52241722E-05 -0.28452255E-05

 -0.49990182E-07 -0.22626662E-05  0.26082944E-07 -0.93878223E-08 -0.31350495E-07
  0.26927289E-07  0.32484664E-07  0.89320664E-08  0.16209327E-07  0.19625097E-07
 -0.24277637E-05 -0.44628417E-07  0.62607320E-07  0.11489371E-08  0.28865999E-08
 -0.69037095E-08 -0.81038601E-08 -0.13014538E-07 -0.10674166E-06 -0.24490494E-05
  0.17312802E-07  0.63401695E-08  0.26156044E-07 -0.66556375E-08 -0.25810100E-09
  0.30955434E-08 -0.51105770E-08 -0.15576096E-07 -0.23915288E-05  0.43367092E-07
  0.10648282E-07  0.15778141E-07  0.98561788E-08 -0.42585546E-07 -0.82692529E-08
 -0.36719997E-07 -0.93520391E-07 -0.24388589E-05 -0.99017410E-07  0.40969249E-07
 -0.14024332E-08  0.12723981E-07 -0.12735950E-07  0.20322308E-08  0.31596362E-07
 -0.83894047E-07 -0.21744171E-05 -0.10678692E-07  0.31476606E-07 -0.55966590E-07
  0.32119491E-07 -0.58701766E-08 -0.16857767E-07 -0.40779053E-07 -0.22243920E-07
 -0.22604513E-05 -0.66508606E-07  0.16465696E-07  0.77052468E-07  0.12375211E-07
  0.92706270E-08 -0.35895198E-08  0.33761503E-07 -0.24021758E-07 -0.24125616E-05
 -0.15490797E-07  0.85108829E-08 -0.10229606E-08  0.36758984E-07  0.18227189E-07
  0.17180051E-07  0.19812170E-07 -0.42262843E-08 -0.24337397E-05  0.62546231E-07
 -0.81306608E-08 -0.25556468E-07  0.22793346E-07 -0.17731105E-07  0.17298218E-07
 -0.75332059E-08 -0.10750492E-07 -0.22253033E-05  0.37729867E-07  0.72242084E-08
  0.13926281E-07  0.21037838E-07 -0.77528421E-08 -0.47979636E-08 -0.14064828E-09
  0.31463333E-07 -0.24904721E-05  0.31393928E-07  0.50419754E-07  0.13185624E-07
 -0.42127205E-08 -0.14359180E-07 -0.12076717E-07 -0.24012090E-08  0.45958897E-07
 -0.24110271E-05  0.42022384E-07  0.14775921E-07  0.31357139E-07  0.51517695E-08
 -0.15580698E-07 -0.15656072E-07 -0.16464791E-08 -0.28826708E-07 -0.24065746E-05
 -0.51742339E-07 -0.50518529E-08 -0.70925668E-08  0.22844291E-07  0.21219666E-07
 -0.35721442E-08  0.22809910E-07  0.53230588E-07 -0.23255397E-05  0.12782315E-06
  0.21783179E-07  0.16304405E-07 -0.70946946E-09 -0.33237170E-08  0.87384690E-08
 -0.37517903E-07 -0.13990991E-07 -0.24890124E-05  0.28459582E-07  0.23591236E-07
  0.36989211E-07 -0.38727503E-08  0.75721329E-09 -0.12893127E-07 -0.20283161E-07
 -0.25018776E-05 -0.70707314E-07 -0.21245032E-05 -0.20118806E-06 -0.18429509E-04
  0.99972865E-05  0.20931924E-05 -0.20242664E-05  0.66347307E-05  0.80578219E-05
 -0.20454064E-04 -0.56171672E-05  0.10557217E-05  0.50796209E-05 -0.18837234E-05
 -0.10623481E-04 -0.13383396E-06 -0.29057402E-05  0.35416003E-05 -0.91236719E-05
  0.33056908E-05 -0.11240615E-06  0.64302199E-05 -0.37514831E-05  0.57496508E-05
 -0.15691663E-05  0.58835879E-05 -0.11102074E-05 -0.76467027E-05  0.79970613E-06
  0.22064858E-05 -0.99725784E-05  0.32015111E-05  0.10788285E-05  0.10592466E-05
 -0.32707232E-05 -0.43361585E-05  0.67405614E-05 -0.18568073E-05 -0.11770377E-05
 -0.38678597E-05  0.55407769E-06 -0.79037646E-06 -0.61762175E-05  0.58188102E-05
  0.17497042E-05 -0.15062578E-04  0.88011010E-06  0.24039721E-05  0.98792323E-05
 -0.35435727E-05  0.26700880E-06  0.20555681E-05 -0.21849971E-05 -0.23029634E-05
  0.23370360E-05  0.22171591E-05 -0.99762461E-06 -0.73244228E-05  0.23979595E-05
  0.34593725E-05 -0.22011421E-05 -0.17818583E-05 -0.14353375E-04  0.11434500E-03
  0.83974932E-05  0.17345115E-05 -0.21237855E-05  0.18392632E-05 -0.17843017E-05
  0.61444627E-06  0.20440039E-05 -0.47149590E-05 -0.14377072E-04 -0.19247710E-05
 -0.14757929E-05  0.90916547E-05 -0.64431518E-06  0.46305776E-05 -0.14368094E-05
  0.32049552E-06 -0.31423894E-06 -0.21088839E-04  0.23875013E-06 -0.10803522E-05
 -0.11683755E-04  0.45990255E-05  0.75344713E-06  0.22898602E-05  0.19586518E-06

  0.12434570E-07 -0.44219458E-06  0.12128735E-06  0.50424914E-08  0.19067126E-07
  0.11099103E-07 -0.19820189E-07  0.73185578E-08  0.38496457E-08 -0.35874327E-07
 -0.40213532E-06  0.94222982E-07 -0.15424915E-08 -0.12670256E-07  0.10072287E-07
 -0.56081527E-08 -0.24021298E-07  0.18036956E-07 -0.29322312E-07 -0.46406849E-06
  0.13402360E-06 -0.27715567E-08  0.12900230E-07 -0.13132864E-07 -0.12982484E-07
 -0.12039393E-07  0.11236775E-07 -0.69461569E-07 -0.39057227E-06 -0.64557685E-08
 -0.54002947E-08 -0.29315376E-07  0.53804513E-08  0.25385218E-07  0.20842467E-07
 -0.20930312E-07  0.34135385E-08 -0.47228469E-06 -0.14111624E-06  0.37166711E-08
  0.26487293E-07  0.28448505E-07  0.27708921E-08 -0.22442872E-07 -0.78824829E-08
 -0.14060095E-06 -0.47540410E-06  0.13186246E-06  0.31756169E-07 -0.45289300E-07
 -0.35032839E-07 -0.21803231E-07  0.34033638E-07  0.43994830E-07 -0.67924249E-08
 -0.44491972E-06 -0.95695535E-07  0.23524648E-07  0.23327207E-09 -0.11448045E-07
 -0.42971691E-08  0.14492173E-07  0.18751266E-07  0.16777265E-08 -0.39299707E-06
 -0.37099996E-07  0.30288206E-08  0.25214981E-07  0.59260606E-08 -0.27714082E-08
  0.23497963E-08  0.12966877E-08 -0.88468302E-07 -0.43491335E-06  0.51829659E-07
  0.30411035E-08  0.54673686E-07 -0.82581861E-08  0.38791174E-08  0.21833289E-07
  0.71384582E-09 -0.10260240E-06 -0.42029952E-06  0.14947085E-06  0.47422095E-08
  0.57741275E-08 -0.10798837E-07  0.97401113E-08 -0.29355878E-08  0.33548920E-07
 -0.13995284E-06 -0.45833269E-06 -0.67368893E-07 -0.49273548E-08 -0.13356282E-08
  0.22952043E-07  0.98487848E-08  0.86695983E-08  0.32285772E-07 -0.37927184E-07
 -0.45421315E-06  0.10362660E-06  0.15229553E-07 -0.66137200E-08 -0.15028770E-08
 -0.53736098E-08 -0.14981566E-07 -0.26985156E-07  0.43424647E-07 -0.45705508E-06
 -0.16583171E-06 -0.78138767E-08 -0.27915588E-07  0.62527924E-07  0.51425570E-08
 -0.20586283E-08 -0.32544652E-08 -0.32455757E-07 -0.40871917E-06  0.29859359E-07
 -0.12172906E-07  0.34368843E-07 -0.32773218E-07 -0.24503712E-08 -0.24579883E-07
  0.75399294E-08 -0.66232105E-07 -0.47981298E-06  0.12177480E-06  0.67345775E-08
 -0.20828419E-07 -0.51202510E-08 -0.68924227E-09 -0.14145938E-07  0.24022016E-07
  0.30959249E-05  0.17392032E-05 -0.92350838E-06 -0.15425317E-05  0.14715361E-05
  0.20943505E-05  0.10378393E-05 -0.25880697E-05 -0.70448650E-05  0.37166165E-05
 -0.89906979E-05 -0.85929820E-05 -0.38127814E-05  0.86517126E-06 -0.11188762E-06
  0.22325296E-05  0.21299814E-05 -0.23827147E-05 -0.94801187E-06 -0.27309344E-05
  0.61724419E-05 -0.14066871E-05  0.51039855E-06  0.19910876E-05  0.11479429E-05
 -0.32435378E-07 -0.48771527E-05  0.12731018E-05 -0.28959123E-06  0.76929163E-05
 -0.10772061E-05  0.82188596E-06  0.32107775E-05 -0.90395511E-06  0.28944889E-05
 -0.14389779E-05 -0.52309791E-05 -0.55222274E-06  0.10976046E-04 -0.58719024E-06
 -0.48487297E-06  0.31129691E-05 -0.27159027E-05 -0.48636564E-05  0.47057034E-05
  0.44312069E-05  0.33907455E-05  0.95482370E-06  0.61232508E-06 -0.19552267E-05
 -0.28456139E-05 -0.19798250E-05  0.17804317E-05 -0.28532013E-05 -0.62694291E-06
  0.17352974E-06  0.95204710E-05  0.13942551E-05  0.17173348E-05 -0.52282062E-06
 -0.36792051E-06 -0.20569804E-05  0.13771477E-05  0.33452162E-05  0.83974932E-05
  0.98312911E-04 -0.21599492E-05  0.10137678E-05  0.12794890E-05  0.44010076E-06
 -0.60757713E-06  0.23332022E-05  0.27422114E-05  0.31008046E-05  0.55839919E-06
  0.11454819E-05  0.10483283E-08 -0.10980872E-05  0.14975093E-05  0.70935522E-05
 -0.60619169E-05 -0.86501100E-06  0.23595923E-05  0.25216232E-05  0.25910073E-05
 -0.22884319E-05  0.22082806E-05 -0.23070715E-05  0.50371021E-05 -0.10357578E-05

 -0.10775988E-06 -0.33581456E-06  0.30293912E-07 -0.54731465E-07 -0.45139425E-07
  0.37890005E-07 -0.67330197E-08 -0.32173504E-07  0.18724936E-07 -0.39669414E-07
 -0.38082113E-06 -0.62342591E-07  0.26815478E-07 -0.16316578E-07 -0.99170393E-08
 -0.45547468E-07  0.19158181E-07  0.10200418E-08 -0.12752768E-07 -0.25468826E-06
  0.34230664E-07  0.64048322E-07  0.11476027E-07 -0.18064919E-07 -0.61967317E-07
 -0.14084730E-09  0.15475768E-07  0.18263474E-07 -0.21789865E-06  0.57931529E-07
  0.64853755E-07 -0.14920103E-07 -0.33632882E-07 -0.89626586E-08  0.11043227E-07
  0.21927894E-07  0.63598630E-07 -0.24660367E-06  0.37165966E-07  0.80706010E-07
  0.31781446E-08 -0.39941841E-07 -0.10476770E-07 -0.23847928E-07  0.72658093E-08
  0.43576798E-07 -0.27889921E-06 -0.63789200E-07 -0.27585221E-07 -0.24173442E-07
 -0.52308788E-08  0.50381802E-07 -0.44377144E-07  0.34807569E-07  0.24985382E-07
 -0.19043068E-06 -0.21283228E-07 -0.78460545E-07  0.47549758E-08  0.24117872E-07
  0.19175830E-07  0.99364623E-08 -0.82380894E-08  0.16030176E-07 -0.21010671E-06
  0.39983842E-07 -0.57344970E-07 -0.15797361E-07  0.13493894E-07 -0.18316397E-07
 -0.58011455E-08  0.17325232E-08  0.19304219E-06 -0.28818611E-06  0.35253201E-07
  0.77501018E-07 -0.13073228E-09 -0.28798871E-07 -0.15714067E-07 -0.52731772E-08
  0.10691750E-07 -0.26421149E-07 -0.24354999E-06 -0.75854769E-07 -0.24582757E-07
  0.15654842E-07 -0.68674388E-08 -0.17493254E-07 -0.41557058E-08  0.26705402E-07
  0.30194743E-06 -0.28652175E-06 -0.51404132E-07 -0.56957161E-08  0.16928249E-07
 -0.42612671E-08 -0.87842969E-08  0.64233559E-08  0.15958038E-07  0.86866583E-07
 -0.25633189E-06  0.42479889E-07 -0.66900087E-07 -0.11867198E-07  0.28931366E-08
 -0.25411418E-07  0.31437652E-07 -0.79595695E-08 -0.34415515E-06 -0.22790081E-06
  0.64810634E-07 -0.43086410E-07 -0.20166670E-07 -0.57002238E-08  0.26505438E-07
  0.85232175E-08  0.11846210E-07  0.17607292E-06 -0.20847191E-06  0.68477432E-07
  0.58533998E-07 -0.28947841E-07 -0.19986666E-07  0.42086671E-09  0.18669253E-07
 -0.12927466E-07 -0.22689604E-06 -0.30284477E-06  0.55002332E-07  0.10880145E-07
  0.70502120E-08 -0.31842921E-07 -0.24106883E-07 -0.37159750E-08 -0.21200975E-07
 -0.14406332E-04  0.79696136E-05 -0.24269175E-05  0.87480120E-05 -0.28882216E-05
  0.48877419E-06 -0.22837136E-05 -0.39956703E-05  0.16980062E-05 -0.13003078E-05
 -0.11783163E-06 -0.40786924E-05 -0.27683516E-05  0.69573084E-06  0.15717754E-05
 -0.47219418E-06  0.30663860E-05 -0.93421805E-06  0.64950909E-05 -0.39439835E-05
  0.57078282E-06 -0.99143297E-05  0.97443030E-05  0.53301875E-06 -0.29736120E-05
  0.85163252E-06  0.19282616E-05  0.39512641E-05  0.10095199E-05  0.22227179E-05
 -0.61750370E-05  0.30950483E-05  0.14240327E-06  0.35965015E-06 -0.10605473E-05
 -0.21497727E-05 -0.54011671E-05 -0.11722948E-05  0.90948326E-06 -0.15003321E-04
  0.65860623E-05  0.51798804E-05 -0.42062884E-05 -0.26655373E-05  0.78074520E-06
 -0.76293879E-05  0.47187013E-07 -0.28340892E-05 -0.10257444E-04 -0.11030909E-06
  0.19034657E-05 -0.21794094E-06 -0.84916413E-05  0.12361740E-05  0.86819984E-05
 -0.61203279E-05  0.17077981E-05  0.16241444E-05 -0.13842003E-05  0.27235951E-05
  0.35183557E-06  0.66192835E-05 -0.18837488E-06 -0.15875620E-05  0.17345115E-05
 -0.21599492E-05  0.14323125E-03 -0.24042702E-04 -0.28994713E-04 -0.14762676E-04
 -0.45408257E-05  0.95048138E-06  0.59488426E-05 -0.32854269E-05  0.10296296E-07
 -0.91847880E-06  0.18895778E-05  0.34740042E-06 -0.26399053E-05 -0.44861955E-05
  0.12272860E-05  0.75361631E-05  0.78081028E-05 -0.77343512E-06 -0.42692272E-05
  0.19946533E-05  0.26624047E-05 -0.42459382E-05  0.37861815E-05 -0.36499949E-05

  0.57005832E-07 -0.74702522E-06  0.80907919E-07 -0.35477695E-07 -0.12360449E-08
 -0.15010745E-07 -0.95203697E-08 -0.14622152E-07 -0.21293828E-07 -0.16083383E-07
 -0.71732450E-06 -0.38713484E-07 -0.27428980E-07  0.43970404E-07 -0.20614227E-07
 -0.96036010E-08  0.35068026E-09  0.31290975E-07  0.25060118E-08 -0.84677681E-06
 -0.29717890E-07 -0.67713553E-08 -0.82722438E-07  0.25902008E-08 -0.95276722E-08
 -0.41426397E-08  0.21998644E-07 -0.23315991E-07 -0.77550921E-06 -0.10926241E-06
 -0.28605408E-07  0.94773331E-08 -0.15223778E-07  0.23070895E-07 -0.27505124E-08
 -0.39232105E-08  0.29411984E-07 -0.66927840E-06  0.18943206E-07 -0.28283853E-07
  0.28171689E-07 -0.93405258E-08  0.13918931E-07  0.21535668E-07 -0.22681852E-07
 -0.31280487E-07 -0.71871514E-06  0.79465624E-07 -0.28710771E-07  0.27486750E-07
 -0.30889548E-07  0.32142169E-07  0.43323290E-07 -0.10362721E-07 -0.26709785E-07
 -0.69710102E-06 -0.16947456E-07  0.75884490E-08 -0.43302445E-07 -0.14081764E-07
 -0.24119074E-08 -0.97879733E-08  0.22720828E-07  0.33933516E-07 -0.59019739E-06
  0.30781671E-07 -0.27879845E-08 -0.32046595E-07 -0.15165787E-07 -0.17173351E-07
  0.34535731E-08  0.12288140E-07 -0.35446554E-07 -0.72505547E-06  0.58916698E-08
 -0.20918586E-07 -0.18411232E-07 -0.17112746E-08  0.42089030E-08 -0.48560400E-08
 -0.22154841E-08 -0.16043030E-07 -0.64074112E-06 -0.63747947E-08 -0.33169383E-08
 -0.11796412E-07 -0.11795819E-07  0.13491563E-07 -0.21345994E-08  0.10169175E-08
 -0.91403249E-07 -0.57107019E-06 -0.79607513E-08  0.34458003E-08 -0.12335660E-07
 -0.19349462E-07 -0.84461667E-08 -0.16504503E-08 -0.92308952E-08  0.27267430E-07
 -0.10448848E-05  0.74941325E-07 -0.16957305E-07  0.10049573E-07 -0.16264387E-07
 -0.11753063E-07 -0.69691557E-08  0.76324358E-08  0.63298230E-07 -0.63995182E-06
  0.10634252E-07 -0.24533092E-07  0.79973293E-08 -0.70110701E-08  0.11268529E-07
 -0.68880648E-08 -0.14995812E-07 -0.52690093E-07 -0.56852618E-06 -0.19635155E-07
 -0.48936957E-07  0.37418489E-07 -0.24595132E-07 -0.14951439E-07  0.24508549E-10
 -0.30550481E-07  0.44937233E-07 -0.70805094E-06 -0.28235130E-07  0.17658120E-08
 -0.44760876E-07 -0.84459745E-08  0.58884565E-08  0.64728907E-08  0.16989754E-07
 -0.32116120E-06 -0.19190112E-05  0.31893163E-06 -0.53459312E-06  0.37025520E-05
 -0.32588085E-05 -0.26181988E-06 -0.13900612E-05 -0.13461266E-05 -0.12853778E-05
 -0.68871992E-05  0.34402147E-06  0.30932671E-06  0.10102383E-04 -0.20127953E-05
 -0.40069141E-05 -0.26871878E-05  0.47858856E-05 -0.29836177E-05  0.90291891E-05
  0.78191601E-06  0.64195732E-05 -0.90966670E-06 -0.14826636E-05 -0.49969853E-06
 -0.15368232E-06 -0.39839432E-06  0.21796768E-05 -0.41176615E-05 -0.12468798E-05
  0.64467011E-06  0.31125570E-05 -0.12740496E-05 -0.84063870E-06  0.82053121E-06
 -0.42234980E-06  0.23018392E-05 -0.28265298E-05  0.87251231E-06  0.35822678E-05
 -0.92558143E-05  0.28728680E-06  0.62540083E-06  0.14571060E-05  0.22995668E-05
  0.57475768E-05  0.45695685E-05  0.11896533E-05  0.12221242E-05 -0.99837700E-05
  0.22031313E-05  0.10931816E-05  0.18235698E-05 -0.16043084E-05 -0.41694117E-05
  0.11762565E-04 -0.11927309E-07  0.77639989E-07 -0.89658890E-05 -0.65552038E-07
  0.11240507E-05 -0.25743435E-05 -0.40224867E-05  0.77406582E-07 -0.21237855E-05
  0.10137678E-05 -0.24042702E-04  0.91442367E-04 -0.23132156E-04 -0.10606451E-04
 -0.14829039E-05  0.29513576E-05  0.13882664E-05  0.23683123E-05  0.12326973E-05
  0.89953120E-06 -0.48453382E-05 -0.27591265E-06  0.30410617E-05  0.27407446E-06
 -0.39966142E-06  0.15985046E-05  0.80476026E-06 -0.27742686E-05 -0.32164421E-06
  0.50342003E-05 -0.72459323E-06 -0.16044088E-05 -0.70169523E-06  0.10438538E-05

  0.58279096E-07 -0.44864933E-08 -0.71098402E-07  0.45531654E-07  0.83974345E-08
 -0.59453972E-07  0.71015109E-08  0.17454922E-07 -0.30474275E-07  0.18703068E-07
 -0.12639311E-07  0.71482271E-07  0.41268211E-09 -0.57787362E-08  0.20733015E-07
  0.28871023E-08 -0.11099584E-07 -0.15952007E-07  0.24192428E-07 -0.73345853E-07
  0.50947561E-07  0.31994190E-08  0.20120786E-07 -0.31409936E-07  0.12264275E-07
 -0.73630124E-08 -0.28094071E-07 -0.11901413E-07 -0.22408849E-07  0.32701771E-07
 -0.93378768E-08  0.11045848E-08  0.25367317E-07  0.29710897E-08  0.16505152E-07
 -0.25640802E-07 -0.17069623E-07 -0.24488340E-07 -0.49022099E-07 -0.73474917E-08
 -0.27109904E-08  0.36856491E-07  0.52311626E-08 -0.19673609E-07 -0.78434860E-08
 -0.55765052E-07 -0.33348886E-07 -0.35472511E-07  0.78746700E-08 -0.16441396E-07
  0.63033490E-08 -0.35912796E-07 -0.45718909E-08 -0.94351058E-08  0.10581318E-07
  0.33223106E-07 -0.10119115E-06  0.91945265E-08  0.16947569E-07 -0.23124919E-08
 -0.23339125E-08 -0.51814633E-08 -0.30543307E-08 -0.56968894E-08 -0.25685316E-07
 -0.96724769E-07  0.23234274E-07  0.21567081E-08  0.15488198E-07  0.11191807E-07
  0.69676141E-08  0.94970793E-08  0.27688985E-08 -0.18831852E-07 -0.79416138E-08
 -0.12651411E-07  0.90424790E-08 -0.40172066E-08  0.92394595E-08 -0.12301568E-08
 -0.27748980E-07  0.21397487E-07 -0.35766288E-08  0.10745629E-06 -0.50137361E-09
  0.91266528E-08  0.42983048E-07 -0.88909401E-10  0.13317352E-07  0.20926271E-07
 -0.19324448E-08 -0.14256335E-07  0.17718560E-07  0.55629525E-08 -0.13237433E-07
  0.70311422E-09  0.88878323E-08  0.11889571E-07 -0.24945233E-07 -0.27186184E-07
  0.51393879E-08 -0.42911575E-07  0.18164543E-07 -0.33871150E-09  0.33375251E-08
  0.78901743E-08  0.28064299E-07  0.33102326E-07  0.58617017E-07 -0.86416067E-08
 -0.44974286E-07  0.15719098E-07  0.23805329E-08 -0.93508756E-08 -0.73532616E-08
  0.10534966E-08  0.47503347E-08  0.13422347E-07 -0.16307314E-07 -0.84653380E-07
 -0.10682468E-07 -0.71484679E-08  0.48938117E-07 -0.13459417E-08  0.11074388E-07
 -0.24154054E-07  0.34874171E-07 -0.36085896E-07 -0.36309867E-07 -0.18393702E-08
  0.13702214E-07  0.30087379E-08  0.66732781E-08 -0.20905805E-07  0.11547416E-07
  0.49068989E-05  0.34868902E-05  0.67409526E-06 -0.21583137E-05 -0.31260227E-05
  0.12060034E-04 -0.10390025E-06 -0.64707816E-06 -0.14260343E-05  0.13770186E-06
 -0.11481947E-05  0.38395402E-05  0.13069156E-05 -0.24557456E-05 -0.96313065E-06
  0.13565062E-05  0.13080970E-05 -0.13834813E-05 -0.32832407E-05 -0.20492640E-05
 -0.37226549E-05 -0.10650055E-06 -0.76951533E-06  0.28149918E-05  0.30811109E-06
  0.10977497E-05  0.22628343E-06 -0.47458930E-05  0.19561195E-05  0.62295264E-06
  0.81795267E-07 -0.26562796E-05  0.28365152E-05 -0.37259136E-07  0.60018903E-06
 -0.37539924E-06  0.13998646E-05  0.10921282E-05  0.22305139E-05  0.39022140E-05
  0.31917728E-06 -0.14120369E-05  0.15453596E-05 -0.66986614E-06  0.10788305E-06
 -0.18870448E-05 -0.27830665E-05 -0.37220993E-05  0.30676104E-05  0.32789690E-05
 -0.27671430E-05 -0.21498457E-06 -0.38160473E-06 -0.76416646E-06 -0.10931046E-05
  0.61953973E-06  0.42341297E-05  0.27160665E-06  0.19747943E-06 -0.39627441E-06
  0.92933206E-06 -0.11826628E-05  0.27963820E-05 -0.10075583E-08  0.18392632E-05
  0.12794890E-05 -0.28994713E-04 -0.23132156E-04  0.87751163E-04  0.24899226E-05
  0.22033578E-05  0.39164682E-05 -0.51432563E-06 -0.10914986E-05  0.30406891E-05
 -0.49948265E-06  0.87238717E-06 -0.14027713E-05  0.10844611E-05 -0.77898807E-07
 -0.25628198E-05 -0.45376178E-05 -0.16661768E-05  0.23937505E-05  0.26085482E-05
 -0.13063778E-05 -0.86020749E-07 -0.67981574E-06 -0.67638906E-06  0.46718559E-05

  0.24092931E-07 -0.83052983E-07 -0.10201316E-06  0.26774301E-08  0.20192262E-07
 -0.14040245E-08  0.10200389E-08  0.21882005E-07 -0.26533579E-07 -0.16253970E-06
  0.24106472E-06  0.11048831E-06  0.70889621E-08 -0.28726184E-07  0.48012873E-08
 -0.23878991E-08 -0.43619061E-07  0.58727693E-08 -0.21840297E-07  0.10565808E-06
  0.37967733E-07 -0.54633933E-09 -0.18171646E-08  0.23121879E-08  0.12935974E-08
  0.15023418E-08 -0.15060206E-07 -0.54349484E-07  0.20403677E-06 -0.52798382E-08
 -0.18007421E-07  0.40488382E-07  0.50924602E-08 -0.27481084E-07 -0.12756419E-07
  0.37027274E-07  0.16069862E-07  0.13395062E-06  0.44760823E-07 -0.25140349E-07
  0.96558980E-08  0.20732166E-07 -0.39750161E-07 -0.11704137E-07  0.72328916E-08
 -0.87492368E-07  0.40582136E-07  0.15987142E-06  0.48961021E-07  0.26121488E-07
 -0.44638187E-07 -0.14842212E-07  0.25288021E-07  0.66047648E-07  0.34238246E-07
  0.26995468E-07  0.16821206E-08  0.88687828E-08 -0.53737805E-08  0.81806381E-08
  0.16981953E-07  0.33169175E-08  0.26357231E-08  0.78197558E-07  0.34166221E-07
 -0.54952180E-07 -0.57399497E-07  0.32969816E-08  0.23595850E-07  0.27034423E-08
 -0.90031951E-08  0.13573680E-07 -0.29896105E-07  0.83132218E-07 -0.25297384E-07
 -0.97965342E-08  0.21907596E-07  0.51210784E-08  0.26113345E-07  0.58735704E-08
  0.87915115E-08 -0.25159913E-07  0.18607208E-06 -0.42593887E-08  0.52376913E-08
 -0.34021574E-07  0.89723412E-08 -0.45969852E-08  0.15287349E-07  0.25989637E-07
  0.10845719E-07  0.17581811E-06  0.26973120E-07 -0.30388943E-07 -0.65586771E-08
  0.80171209E-08  0.63199061E-07  0.18199368E-07  0.58911506E-08 -0.97675180E-07
  0.17603617E-06 -0.63685780E-07  0.41492986E-07 -0.92757801E-08  0.33175754E-08
  0.46343187E-09  0.26766132E-09  0.11876705E-07 -0.29312606E-08  0.20111675E-06
  0.35962638E-07  0.55793219E-07  0.38281901E-07 -0.26513666E-07 -0.32035628E-07
  0.36581832E-07 -0.44184201E-08 -0.73862345E-08  0.85935637E-07 -0.32607593E-07
  0.24756913E-07 -0.72647888E-08  0.73099059E-08  0.13761550E-07 -0.19932968E-07
 -0.78704869E-08  0.24337438E-07  0.23434337E-06 -0.39558175E-08 -0.29322338E-07
 -0.17283508E-07  0.22081970E-07  0.12758093E-07 -0.19778948E-07  0.25875468E-07
 -0.35445956E-05 -0.56975574E-05  0.54034998E-05 -0.20569680E-05 -0.67455856E-05
  0.15200172E-05 -0.24419445E-05  0.33507865E-05 -0.15145136E-05 -0.26678917E-05
 -0.38560291E-05  0.41443995E-05  0.45496633E-05 -0.35033356E-05  0.41375263E-06
 -0.29490425E-06  0.24948630E-05  0.70821970E-06  0.14000329E-05 -0.76421681E-05
 -0.84572215E-06 -0.42191193E-05 -0.93477529E-05  0.10677978E-05  0.76731003E-05
  0.66060428E-06 -0.27814667E-05 -0.42679713E-05  0.27775241E-05 -0.18607997E-05
 -0.32666926E-06  0.27841940E-05 -0.48386265E-06 -0.16388503E-05 -0.21606632E-05
  0.53024132E-06 -0.90252534E-05  0.21196815E-07  0.75361450E-06  0.36094927E-05
  0.15466790E-05 -0.86069814E-06 -0.68661060E-05  0.26011234E-05  0.12159958E-05
 -0.21491817E-05  0.91473474E-05 -0.53865529E-06  0.54276557E-07  0.47100429E-05
 -0.14033045E-05 -0.76240690E-05 -0.70260166E-06 -0.12137369E-05 -0.13040018E-05
  0.45669833E-06  0.63988937E-06 -0.20634014E-05  0.14589840E-05 -0.25794253E-05
 -0.32251558E-05  0.60330378E-05  0.30609259E-06 -0.31289910E-05 -0.17843017E-05
  0.44010076E-06 -0.14762676E-04 -0.10606451E-04  0.24899226E-05  0.83075710E-04
  0.23375816E-05 -0.68921836E-05 -0.71563577E-06  0.21291897E-05  0.24480896E-05
 -0.13465652E-05  0.19266031E-05  0.58802403E-06 -0.32890195E-05  0.11060564E-05
  0.18420274E-05  0.78410129E-06  0.26022448E-05  0.32661307E-05 -0.31272047E-05
 -0.42480456E-06  0.78899159E-06  0.14283815E-05 -0.10671744E-05 -0.16469651E-05

  0.74966350E-08  0.13187538E-06  0.79470190E-07 -0.14695208E-07 -0.15192215E-07
  0.11588486E-07 -0.95727340E-08 -0.45661029E-08 -0.41873842E-08 -0.30513136E-07
  0.10098128E-06 -0.16147282E-07  0.93621452E-08  0.14907513E-07 -0.10468517E-07
 -0.86277257E-08  0.11650044E-07 -0.16300178E-07  0.87215547E-07  0.10146991E-06
  0.24044107E-07  0.16638474E-07 -0.20220302E-07 -0.13067486E-07  0.12452950E-07
 -0.68018708E-08 -0.12181434E-08 -0.86153991E-08  0.11414780E-06 -0.44266407E-07
  0.18146323E-07 -0.19732345E-07  0.15353610E-07  0.25592804E-07  0.16223258E-07
  0.17389559E-08  0.25391617E-07  0.19081368E-06 -0.32756037E-09 -0.18730190E-07
  0.14482264E-07 -0.26613876E-07 -0.82160675E-08  0.19723810E-07 -0.17415033E-08
 -0.13467911E-07  0.25231653E-06 -0.12774361E-06 -0.37114127E-07  0.70141122E-07
 -0.73524614E-08  0.49965116E-07 -0.45235240E-07 -0.29744125E-07 -0.96042079E-07
  0.10786342E-06 -0.20485336E-07 -0.45562279E-08 -0.78406478E-08 -0.58697279E-08
 -0.20308310E-09 -0.14155583E-07  0.80395242E-08 -0.35438226E-07  0.17333294E-06
  0.36989444E-07 -0.16406940E-07 -0.48423400E-08  0.19048860E-07  0.12354537E-07
  0.79513732E-08  0.19658561E-08 -0.97062899E-08  0.90531629E-07  0.32857965E-07
  0.58361662E-08 -0.30413616E-07 -0.84603987E-08 -0.96804374E-08  0.25145499E-08
 -0.53919442E-09 -0.59913113E-07  0.67789816E-07  0.16902431E-07 -0.90350750E-08
  0.66380072E-09  0.20520593E-07  0.31182972E-07  0.38693623E-07 -0.10002972E-07
 -0.92835427E-07  0.14143052E-06  0.79287295E-07  0.10485815E-07 -0.13199169E-07
  0.92255527E-08  0.46323651E-08 -0.33772361E-09  0.58835782E-08  0.40026572E-07
  0.11917050E-06  0.94776245E-08  0.67059544E-08  0.53784156E-08  0.32129576E-07
  0.17596924E-07 -0.11844284E-07  0.77545590E-09  0.94554643E-07  0.14857634E-06
  0.34394542E-07  0.20160693E-07  0.22486270E-08  0.37059722E-09  0.13597718E-07
 -0.20424722E-08 -0.16274622E-07  0.32684341E-07  0.14274443E-06  0.74997688E-07
  0.21051682E-07 -0.10099188E-07  0.12266403E-07 -0.36841800E-07  0.10322051E-07
  0.11100068E-08  0.10050215E-06  0.10757874E-06 -0.29213081E-07 -0.97595637E-08
  0.10951978E-07 -0.25190713E-07 -0.94731065E-08 -0.10617047E-07 -0.32795057E-08
  0.22092798E-05  0.86105569E-06  0.25402800E-05 -0.54806865E-05  0.79846326E-06
 -0.13509609E-05 -0.69281302E-07  0.90525455E-05 -0.60712065E-06 -0.45323540E-05
 -0.16663165E-05 -0.27480875E-05  0.62109695E-05 -0.42425030E-05 -0.33663048E-06
  0.18856177E-05  0.25762430E-05 -0.43365334E-07 -0.32876870E-06  0.19213604E-06
 -0.16680720E-05  0.14064200E-05 -0.21669837E-05  0.12466106E-05  0.26277828E-05
  0.21599395E-05 -0.17657198E-05  0.20660200E-05  0.29432386E-05 -0.47463522E-05
  0.18744451E-05  0.43908104E-06 -0.51569062E-06 -0.33225137E-05  0.10446442E-05
  0.11088862E-05  0.68128876E-05 -0.22730567E-05  0.95303233E-06 -0.38657049E-05
  0.14454702E-05 -0.12446758E-05  0.36694509E-05  0.35182641E-05 -0.54162109E-06
 -0.66073380E-05  0.43958192E-06 -0.28352712E-05 -0.96519800E-05  0.11782543E-05
  0.45624878E-06  0.97717680E-06 -0.10418238E-05  0.60610880E-06  0.25941355E-05
 -0.23186668E-05  0.12741948E-05  0.40118763E-05 -0.24372226E-05  0.27052817E-06
  0.17998543E-05 -0.53511729E-06  0.92014436E-06 -0.47732320E-05  0.61444627E-06
 -0.60757713E-06 -0.45408257E-05 -0.14829039E-05  0.22033578E-05  0.23375816E-05
  0.72101672E-04 -0.66075866E-05  0.12554157E-05  0.19190192E-05  0.12341399E-05
 -0.31026642E-05  0.54118238E-06 -0.20678563E-05 -0.79267627E-06  0.54094667E-06
  0.17324824E-05 -0.13974910E-05 -0.27020606E-05 -0.33135703E-05  0.44665040E-05
 -0.38566520E-06  0.56148256E-06 -0.19384522E-05  0.31555251E-05 -0.11337839E-05

 -0.54319847E-07 -0.57522313E-06  0.70062173E-07  0.26226682E-07  0.32128009E-07
 -0.18853815E-07 -0.28348809E-07  0.19700729E-08  0.16858129E-07  0.11402195E-06
 -0.66173655E-06  0.25223885E-07 -0.51436883E-08 -0.43990692E-07 -0.61108837E-08
  0.60166181E-08 -0.92667695E-08 -0.21495208E-07 -0.34935111E-08 -0.62393469E-06
 -0.39834180E-07 -0.36404091E-08 -0.41099648E-08  0.18686695E-07 -0.18273152E-07
 -0.39232829E-08 -0.24691823E-07 -0.12189151E-07 -0.52814577E-06 -0.57534271E-07
 -0.18624902E-07  0.51870437E-07 -0.10960981E-07  0.24682171E-07 -0.14031297E-08
 -0.11569031E-07  0.32844222E-07 -0.53379784E-06 -0.59065490E-07  0.30844134E-08
 -0.23953788E-07  0.61592341E-08 -0.54218666E-08 -0.53791149E-09 -0.29430893E-08
  0.18406824E-06 -0.51474545E-06  0.44490446E-07 -0.78730611E-08  0.53857511E-07
  0.20134213E-07  0.60410139E-07 -0.19183345E-07 -0.50775442E-07 -0.11862510E-07
 -0.48532967E-06  0.63004417E-07 -0.53335587E-08  0.16643745E-07  0.89945572E-08
 -0.11658848E-07  0.46051921E-08  0.44789016E-08 -0.45661605E-07 -0.50470752E-06
 -0.32673417E-07  0.21954349E-07 -0.60274543E-07 -0.33756080E-09  0.11445406E-07
  0.67956551E-08  0.13021097E-07  0.84034956E-08 -0.52954236E-06  0.22830191E-07
  0.18490840E-08  0.13902129E-07 -0.61754384E-08  0.34424277E-08  0.22414971E-08
  0.22150703E-07 -0.94482739E-08 -0.47547549E-06  0.27936794E-07  0.15538685E-07
  0.40020531E-07  0.48332166E-08  0.31421587E-07 -0.44657147E-08  0.34343060E-07
 -0.14260422E-07 -0.50473376E-06 -0.40426064E-07  0.74108155E-08  0.10176307E-07
  0.12854304E-07  0.54168088E-08 -0.91792505E-08  0.10008965E-07 -0.32714160E-07
 -0.60159988E-06 -0.54958260E-07 -0.51165687E-08 -0.20956889E-07  0.23967690E-07
  0.20533006E-07  0.90188872E-08 -0.17625729E-07  0.72846246E-07 -0.52212719E-06
 -0.23729633E-07  0.28211523E-07 -0.11750611E-07  0.15374739E-08 -0.32712099E-08
 -0.11641052E-07  0.63495583E-08 -0.26399556E-07 -0.54262473E-06 -0.59386366E-07
 -0.13080137E-08 -0.65311006E-08 -0.14724599E-07 -0.10765331E-07 -0.81386845E-09
 -0.34070035E-07 -0.62916596E-08 -0.61592658E-06  0.10700781E-06  0.36338244E-08
 -0.24664265E-07  0.12856773E-07  0.84403107E-08  0.20653077E-08  0.50602066E-07
  0.49472631E-05  0.17244085E-05 -0.74644562E-05 -0.60393277E-06  0.55748386E-06
  0.50447265E-05 -0.34097654E-05 -0.11064186E-05  0.24943244E-05  0.21705925E-05
  0.33283225E-06  0.13883037E-06 -0.34561919E-06  0.38639830E-05 -0.73494146E-07
 -0.59449262E-06  0.41159378E-06 -0.13477141E-06 -0.12864185E-05  0.34415908E-06
 -0.43796396E-05 -0.37576959E-06  0.38362636E-05  0.14263060E-05 -0.29421625E-05
 -0.15795206E-05  0.24190500E-05 -0.38664088E-06 -0.24106643E-05 -0.90765604E-06
 -0.32351867E-06 -0.78953366E-06  0.23869817E-05  0.21352894E-06 -0.17476358E-05
  0.72835940E-06  0.45528929E-06  0.13709966E-05  0.20821890E-05 -0.43465898E-07
  0.44817867E-07  0.21132587E-05  0.23605592E-05  0.69646455E-06 -0.30038870E-06
  0.66028578E-06  0.67653740E-05 -0.27211568E-05  0.98509186E-06 -0.16024393E-05
  0.56520380E-09 -0.68676625E-06 -0.41135263E-06 -0.92324987E-05 -0.10926562E-05
  0.21951014E-06  0.46600062E-05  0.18352838E-05  0.42880666E-05 -0.62710419E-06
  0.23241100E-06 -0.49034894E-05 -0.31959944E-05 -0.62904735E-07  0.20440039E-05
  0.23332022E-05  0.95048138E-06  0.29513576E-05  0.39164682E-05 -0.68921836E-05
 -0.66075866E-05  0.62725867E-04  0.20452342E-05 -0.47524085E-05 -0.30767203E-05
 -0.48621910E-06  0.36019931E-05 -0.81934080E-06  0.35371417E-06  0.31478559E-06
 -0.11131449E-05  0.26214032E-05  0.25814389E-05 -0.69075726E-05 -0.16414797E-06
 -0.80482157E-06  0.33929643E-05 -0.19560652E-05  0.16106872E-05 -0.39727965E-05

  0.16385690E-07  0.84751209E-06 -0.31089987E-07 -0.42103406E-07  0.17774830E-07
  0.12178999E-07 -0.47632838E-08 -0.16485401E-07 -0.47371672E-08 -0.37878076E-07
  0.87298924E-06  0.11436575E-07 -0.28075130E-07  0.29597488E-07 -0.98174120E-08
 -0.36031842E-08 -0.10488272E-07  0.12519326E-07  0.86234761E-08  0.85892800E-06
  0.29754663E-07  0.19235490E-07  0.52164702E-08 -0.27624293E-07 -0.54100343E-08
  0.14928804E-07  0.13123051E-07  0.15540929E-07  0.84679935E-06 -0.55821708E-07
  0.20242944E-07 -0.41127116E-07 -0.43536668E-08  0.11769316E-07  0.33881529E-07
 -0.26980113E-08 -0.95548467E-07  0.11119856E-05  0.12504848E-06  0.64157375E-07
 -0.22975125E-07 -0.21677139E-07 -0.72303679E-07  0.39850012E-07 -0.13039488E-07
 -0.10544976E-07  0.79076760E-06  0.12043504E-07  0.14776176E-07 -0.18186426E-07
 -0.36406017E-08  0.19508038E-07  0.11330675E-08  0.74638171E-08 -0.13691535E-06
  0.80800827E-06  0.44076571E-07  0.68509461E-07  0.11961954E-07 -0.14536931E-07
 -0.65776116E-08 -0.14018986E-07  0.11902007E-07  0.17264240E-07  0.90320844E-06
  0.32399887E-07 -0.47320564E-07  0.98577895E-08 -0.14841169E-08  0.48455403E-08
 -0.20079438E-07  0.17645413E-07  0.16097146E-06  0.83097355E-06  0.21760382E-07
  0.54606857E-07  0.67967809E-08  0.29206648E-08  0.26388096E-07  0.24152826E-08
  0.10473834E-08  0.24933059E-07  0.86298496E-06 -0.10849742E-06 -0.21869066E-07
 -0.36787480E-08  0.15018328E-07  0.15784729E-07 -0.30982389E-08  0.39541053E-08
 -0.15900801E-06  0.94344629E-06  0.17999113E-07 -0.67087401E-07  0.81777654E-08
 -0.18834121E-08  0.36669710E-07  0.13117945E-07  0.10549177E-07  0.65957238E-07
  0.98381233E-06 -0.36552925E-07 -0.29240068E-07 -0.11767241E-07  0.19560897E-07
 -0.18707812E-07  0.22868070E-07 -0.85689503E-08  0.76273750E-07  0.94762601E-06
  0.88014369E-07  0.15912570E-07 -0.40552426E-07 -0.13393829E-07  0.11857347E-08
 -0.20575571E-07 -0.31705593E-08 -0.34506766E-07  0.95143552E-06  0.20651962E-07
  0.23640063E-07 -0.14416953E-07 -0.62174981E-08 -0.25767874E-07 -0.11604228E-07
  0.39310730E-08  0.37938414E-07  0.87122358E-06 -0.43941327E-07  0.21799589E-07
 -0.19784641E-07 -0.23207150E-07 -0.32892512E-08  0.90739277E-08  0.17431229E-07
  0.62093530E-05  0.49203305E-05 -0.24132411E-05 -0.87671330E-05 -0.21944498E-05
  0.49966228E-07  0.80130557E-06 -0.25151024E-05  0.38991387E-06 -0.73331276E-05
  0.19949605E-05 -0.16636953E-05 -0.52799368E-06 -0.12695571E-05  0.31586129E-06
  0.14962144E-05  0.12715227E-05  0.33728263E-07  0.21352215E-05 -0.16945868E-05
 -0.62191716E-06 -0.13153755E-05  0.42215775E-05  0.54842388E-06 -0.76422211E-05
  0.24308131E-05 -0.63852402E-06 -0.99503836E-05  0.32832435E-05  0.23697321E-05
 -0.48137873E-05  0.99961047E-06  0.53609143E-06 -0.83593109E-06 -0.30514019E-05
  0.40514193E-06 -0.27260588E-05 -0.11380621E-04  0.44559221E-06  0.33864415E-05
 -0.17870477E-06  0.24952884E-05 -0.36327285E-05  0.48120071E-05 -0.10982129E-05
  0.29402017E-05  0.56574305E-05 -0.93917593E-06  0.24344208E-05 -0.27754479E-05
  0.11503314E-05 -0.80333749E-05 -0.28530318E-05 -0.75757528E-07  0.60001094E-05
  0.52961168E-06  0.61401029E-05  0.13879597E-05 -0.14827207E-05 -0.24207395E-06
 -0.18492399E-05  0.57599500E-05  0.78270209E-06  0.14372322E-04 -0.47149590E-05
  0.27422114E-05  0.59488426E-05  0.13882664E-05 -0.51432563E-06 -0.71563577E-06
  0.12554157E-05  0.20452342E-05  0.11563573E-03 -0.14239255E-04  0.36887909E-05
 -0.49176463E-05  0.34888129E-05  0.50280280E-06  0.14550207E-05 -0.14991067E-05
  0.20700793E-05 -0.34312563E-05  0.22121449E-05  0.30258719E-05  0.10303285E-05
  0.46504929E-05 -0.15417362E-05 -0.54969384E-05  0.16330888E-05 -0.61953016E-06

 -0.10496266E-06 -0.31455922E-05  0.12492461E-07  0.11941613E-07  0.56236857E-08
 -0.37238037E-07  0.53567382E-08  0.69074108E-08 -0.58654154E-08  0.44675888E-07
 -0.31800151E-05  0.32072796E-07 -0.24217100E-07 -0.52294239E-07  0.12808043E-07
 -0.32062040E-07  0.69994062E-08  0.20687228E-09 -0.64707531E-07 -0.32342129E-05
 -0.60489178E-07 -0.35803253E-07  0.31452644E-07  0.10415014E-07 -0.18417058E-07
  0.22355047E-07 -0.99033493E-08 -0.40015493E-07 -0.33217400E-05 -0.15345970E-08
  0.22546159E-08  0.18772760E-07 -0.11129714E-07 -0.41742025E-07  0.62526600E-09
 -0.91835961E-08  0.22357861E-06 -0.31168816E-05  0.44275024E-07 -0.28754032E-07
  0.27121019E-09 -0.12440598E-07  0.55357974E-08 -0.39706317E-07 -0.33580352E-07
 -0.71092126E-07 -0.27653986E-05  0.33544688E-07 -0.16504432E-07 -0.42149911E-07
 -0.20593631E-07  0.39602765E-08  0.43292589E-08  0.23703735E-07 -0.37178274E-07
 -0.31917122E-05 -0.40727232E-07  0.24360844E-07 -0.51588785E-07 -0.16966717E-07
  0.13563506E-07  0.17398395E-07 -0.17191052E-07  0.43586392E-07 -0.31117421E-05
  0.88096422E-07 -0.73183310E-08  0.98940396E-08 -0.23749798E-07  0.86897189E-08
  0.13808273E-07 -0.82254581E-08 -0.90158077E-07 -0.30133443E-05 -0.71080883E-07
 -0.12606612E-07 -0.32605430E-07 -0.66936623E-08  0.88927174E-08 -0.86011261E-08
 -0.22739375E-07 -0.44292868E-07 -0.30499651E-05 -0.22604031E-07 -0.26665231E-07
 -0.23717493E-07 -0.20415326E-07 -0.26257208E-07 -0.87027715E-08  0.14977145E-07
  0.84269149E-08 -0.29236876E-05  0.15611127E-07  0.10179814E-08 -0.14229177E-07
 -0.27137965E-08 -0.12626503E-07 -0.45420655E-08 -0.10931368E-07 -0.62395335E-07
 -0.30512647E-05 -0.45933848E-08  0.62443529E-08 -0.29362023E-07  0.73401700E-08
  0.24376052E-07 -0.15766814E-08 -0.95091680E-08  0.38212581E-07 -0.31213421E-05
 -0.26129124E-07 -0.40632925E-07  0.66801361E-07 -0.18397130E-07 -0.18605900E-07
 -0.33011985E-08 -0.24883389E-07  0.15679683E-07 -0.32341865E-05 -0.64274543E-07
 -0.36754056E-07  0.51787694E-07  0.18870306E-08  0.27535596E-07 -0.36219414E-08
  0.17132914E-07 -0.88479584E-08 -0.30683120E-05 -0.62791279E-07  0.27156217E-08
  0.23850373E-07 -0.62554865E-09 -0.14693393E-07 -0.41820866E-08  0.19077891E-07
  0.19439578E-05 -0.10551096E-04  0.77399572E-05  0.51546364E-05 -0.29336222E-05
 -0.11055198E-04  0.56597140E-05 -0.53043551E-06  0.63192959E-05  0.32265853E-05
 -0.41989155E-05 -0.35934495E-06  0.83008915E-06 -0.14334259E-05  0.10485799E-05
  0.19287234E-05 -0.21642373E-05  0.46703482E-05 -0.73137780E-06  0.23020098E-05
  0.85593781E-06 -0.71119710E-06 -0.67637817E-05  0.20891974E-06  0.40996576E-05
 -0.14923857E-05 -0.56749767E-05  0.15308168E-05 -0.22831592E-04 -0.13405559E-05
  0.14893889E-05  0.13710436E-04 -0.39349827E-05 -0.31943093E-05  0.29227346E-06
 -0.35186398E-05  0.35893541E-05 -0.71009659E-05  0.33719296E-05  0.30851419E-05
  0.84507660E-05 -0.42035725E-05  0.22111488E-05 -0.38826281E-06 -0.20521173E-05
  0.34746411E-05 -0.18687560E-04  0.30978005E-05 -0.40621374E-05 -0.43105670E-05
  0.50168481E-06 -0.60863836E-05  0.17279726E-05 -0.31648402E-05  0.51045702E-07
 -0.85708898E-05 -0.41372838E-05 -0.32612859E-05 -0.17915152E-05  0.30769571E-05
  0.33655291E-05 -0.10516981E-05  0.91529443E-06  0.11319534E-05 -0.14377072E-04
  0.31008046E-05 -0.32854269E-05  0.23683123E-05 -0.10914986E-05  0.21291897E-05
  0.19190192E-05 -0.47524085E-05 -0.14239255E-04  0.13210336E-03 -0.31863951E-05
 -0.14254100E-06 -0.18147868E-04  0.11253526E-05  0.22083691E-05 -0.13906139E-05
  0.61252964E-06  0.18251243E-05 -0.15578855E-05 -0.43904961E-06 -0.30494411E-06
 -0.10276128E-04  0.28795812E-05  0.35643078E-05 -0.93152147E-06 -0.61907140E-05

  0.19628056E-07 -0.65167941E-06 -0.19267115E-06 -0.39371347E-07  0.52081272E-08
  0.14218495E-07  0.14757319E-08  0.21940299E-07 -0.10624489E-07  0.12262474E-07
 -0.61994838E-06  0.15133714E-06 -0.16536592E-07  0.93351934E-08 -0.20162031E-07
  0.18604059E-08 -0.18539894E-07  0.12574140E-07  0.39441739E-07 -0.60833601E-06
  0.40172889E-07  0.38625859E-07 -0.27659081E-07 -0.28383228E-07  0.29301751E-08
 -0.28996991E-07 -0.18317525E-07 -0.42185841E-07 -0.61921368E-06 -0.12871145E-06
  0.19254900E-07 -0.33355531E-07  0.39903172E-07 -0.47807831E-08 -0.14252506E-07
  0.19728674E-07  0.13303790E-06 -0.55069365E-06 -0.12582238E-06 -0.47664730E-08
 -0.42560632E-07  0.12205439E-06 -0.25625997E-07 -0.72456009E-09 -0.26116031E-07
  0.35069491E-07 -0.66764369E-06  0.17637388E-07  0.17550526E-07 -0.13044213E-08
 -0.55633845E-07  0.97440624E-08 -0.19113544E-07  0.15826564E-07  0.55645762E-07
 -0.67280444E-06  0.25754250E-07 -0.32272864E-07  0.14086550E-07  0.49761836E-08
  0.11521201E-07  0.21256727E-07 -0.19445277E-07  0.94323719E-07 -0.61417479E-06
 -0.69693799E-07 -0.36895357E-07 -0.90767476E-08  0.25503705E-07  0.23850267E-07
 -0.46746645E-08  0.21699725E-08  0.25721354E-07 -0.60095441E-06 -0.15251549E-06
 -0.52293904E-08  0.13696592E-07 -0.25542868E-07  0.31487463E-08  0.49838056E-07
 -0.32310974E-07 -0.11660154E-06 -0.67321043E-06  0.42830315E-07  0.47250648E-08
 -0.15046534E-07 -0.14455980E-07  0.13685267E-10 -0.24459350E-08  0.16507213E-07
 -0.93781329E-09 -0.64543673E-06 -0.67973121E-07  0.90043942E-08  0.15067513E-07
 -0.33491213E-07 -0.27699874E-08 -0.23762025E-07 -0.41942428E-08 -0.66051148E-07
 -0.62194322E-06  0.61698287E-07  0.16218256E-07 -0.15085291E-07 -0.10530480E-08
 -0.22961621E-07  0.19117795E-07  0.24214727E-07  0.98947436E-07 -0.62386132E-06
 -0.65449290E-07 -0.22468700E-07 -0.11279748E-07  0.14028250E-07  0.93460771E-08
 -0.18084551E-07 -0.23713621E-07  0.95057178E-08 -0.63285884E-06  0.68959041E-07
 -0.12064988E-07  0.10225717E-07 -0.35037603E-07  0.14918996E-07  0.16854056E-07
  0.67523467E-11 -0.42736060E-07 -0.70144194E-06  0.11475777E-06 -0.10260998E-07
 -0.13038477E-07  0.25686982E-07  0.61570594E-08 -0.36979096E-08  0.17001786E-07
 -0.15762242E-05  0.90560056E-05  0.12949218E-04  0.47574117E-05 -0.15734001E-05
 -0.12730548E-04  0.20070667E-05 -0.90996916E-05 -0.50732198E-06 -0.27273266E-05
  0.56641421E-06 -0.22201561E-05 -0.22808882E-06 -0.95360057E-06 -0.20843118E-05
  0.58035105E-06 -0.44019309E-06 -0.56172537E-06 -0.97187622E-06  0.28297709E-06
  0.69702866E-05  0.19100075E-05 -0.20462879E-05 -0.22255950E-05  0.33962958E-07
 -0.25433771E-05 -0.77787979E-06  0.22912508E-05  0.15006936E-05  0.32659466E-05
 -0.35353344E-05  0.50575716E-05  0.60402476E-06 -0.40841475E-06 -0.27767337E-05
  0.87248853E-06  0.33298845E-05 -0.25374297E-05 -0.58801925E-05  0.12461967E-05
  0.19668178E-05  0.47262641E-05 -0.46402791E-06  0.38426327E-05 -0.25120280E-05
 -0.39267191E-05  0.23253738E-05 -0.15951895E-05  0.16651030E-06 -0.10397468E-05
 -0.58268862E-05 -0.26167591E-05  0.28338216E-05  0.29660589E-05  0.45135257E-05
 -0.17911598E-05 -0.26948646E-05  0.36237124E-05  0.35450207E-05 -0.47243430E-05
  0.80004069E-06 -0.25175340E-05 -0.34379081E-05  0.48254275E-05 -0.19247710E-05
  0.55839919E-06  0.10296296E-07  0.12326973E-05  0.30406891E-05  0.24480896E-05
  0.12341399E-05 -0.30767203E-05  0.36887909E-05 -0.31863951E-05  0.12029848E-03
  0.85128107E-06  0.27888585E-05 -0.10983479E-04  0.12268727E-05 -0.13024255E-05
  0.27657957E-05  0.33954805E-05  0.52124923E-05 -0.62608911E-05  0.41553228E-06
 -0.37762115E-06  0.50023517E-05 -0.65443122E-06  0.50953946E-06  0.52478281E-06

 -0.13851585E-06 -0.29871684E-06 -0.32816267E-07 -0.10708305E-06  0.28613693E-07
  0.10396786E-07  0.79082061E-08  0.11484957E-07 -0.63510941E-08  0.13546533E-06
 -0.43164890E-06  0.54628227E-07  0.55499416E-07 -0.69228842E-08 -0.13724633E-09
 -0.36544924E-07 -0.76012738E-08 -0.10689928E-07 -0.79307132E-07 -0.35098696E-06
  0.18023342E-07 -0.65212009E-07  0.29402603E-07  0.15718032E-07 -0.18798679E-07
 -0.17890655E-07 -0.18172556E-08  0.37605750E-07 -0.19993257E-06  0.62550695E-07
  0.66666990E-07 -0.63977034E-07  0.88382061E-08  0.38514863E-08  0.48678406E-08
  0.36748108E-08 -0.26257718E-06 -0.30454139E-06 -0.39546437E-07  0.16228415E-07
 -0.37780788E-07  0.12101306E-08 -0.75768895E-08  0.54456831E-07 -0.11869638E-07
 -0.88276380E-07 -0.24075802E-06 -0.22594962E-07  0.63297330E-07 -0.60301702E-08
 -0.12851162E-07  0.69954136E-08  0.98633005E-08  0.33505985E-08  0.49621757E-07
 -0.36686422E-06 -0.10999372E-07  0.61656545E-07 -0.26504642E-07 -0.56452533E-09
 -0.32756545E-07 -0.19911272E-07  0.64935025E-09  0.10816557E-06 -0.34517414E-06
  0.71069609E-08 -0.11367864E-06  0.29648117E-07  0.21769952E-07  0.44872853E-08
  0.10556150E-08  0.29479658E-08  0.89559279E-07 -0.44664782E-06 -0.15677842E-07
  0.10447516E-06 -0.79947862E-09 -0.11735263E-07  0.22903231E-07  0.39847860E-07
 -0.12868409E-07 -0.15760956E-07 -0.33025910E-06 -0.11248741E-07 -0.21279137E-07
 -0.60025410E-08 -0.21281314E-08 -0.11344147E-07 -0.48016038E-08 -0.70081726E-09
 -0.11191974E-06 -0.39335549E-06 -0.67783241E-07 -0.88032984E-07  0.42549151E-07
  0.10255501E-07 -0.85040969E-08  0.92882807E-08  0.12247033E-07  0.19850201E-06
 -0.33783817E-06 -0.14083069E-07  0.23926483E-07  0.41471741E-07 -0.42852720E-07
 -0.19572989E-07 -0.29429926E-07  0.30061169E-08  0.18294479E-07 -0.40605356E-06
  0.98544409E-08  0.51433149E-07  0.10885130E-07 -0.17226925E-07 -0.44405618E-07
 -0.18933717E-07  0.46878744E-08 -0.16905282E-06 -0.36627156E-06  0.15175226E-07
  0.51197095E-08 -0.15051422E-07 -0.42372877E-08 -0.25607615E-08 -0.11975600E-08
  0.58034730E-08  0.10722381E-07 -0.31301895E-06 -0.43717796E-07 -0.61907728E-07
  0.41828910E-07  0.13330251E-07 -0.47128721E-07 -0.71028351E-08 -0.95924904E-08
 -0.66068541E-05 -0.36498419E-05  0.51988102E-06 -0.83589793E-05  0.18778960E-05
 -0.11512120E-05 -0.49231497E-05  0.17061689E-06  0.29558241E-05 -0.96966025E-05
  0.38029094E-05 -0.39884009E-05  0.45481527E-05 -0.13112957E-05  0.18128876E-05
 -0.31245676E-05 -0.13457894E-05 -0.10798835E-05 -0.50066405E-05  0.35138046E-05
 -0.68432357E-06  0.25179595E-05  0.38640018E-05 -0.17284279E-05 -0.71908051E-05
 -0.58480793E-05 -0.10341712E-07 -0.12943700E-05 -0.93944044E-07  0.20183765E-05
  0.13605137E-04 -0.11763659E-04  0.11827305E-05  0.30105285E-05  0.33242787E-05
 -0.11980820E-05  0.70348738E-05  0.17298226E-05 -0.11314760E-05  0.41369359E-05
  0.16112476E-05 -0.34886011E-05 -0.32346316E-05  0.38671132E-06  0.10385035E-06
  0.10229710E-04 -0.36515831E-05  0.32761569E-05 -0.13486105E-05 -0.35562999E-06
 -0.78389898E-06 -0.18525913E-05 -0.57841112E-06  0.66986627E-06 -0.58618942E-05
  0.31906740E-06 -0.19355931E-05  0.37071252E-05  0.23831608E-05 -0.22866529E-05
  0.11537918E-05  0.37177482E-05 -0.18161546E-05 -0.23549149E-05 -0.14757929E-05
  0.11454819E-05 -0.91847880E-06  0.89953120E-06 -0.49948265E-06 -0.13465652E-05
 -0.31026642E-05 -0.48621910E-06 -0.49176463E-05 -0.14254100E-06  0.85128107E-06
  0.11888283E-03 -0.27824353E-04 -0.27926440E-04 -0.18735955E-04  0.50658358E-05
 -0.15085061E-05 -0.32174927E-05  0.47801668E-05 -0.39048253E-05 -0.32521329E-05
 -0.58793579E-06  0.10054173E-05  0.36402572E-05 -0.22648640E-05  0.83801022E-06

  0.14267556E-07  0.16438755E-06 -0.16866764E-07 -0.92417118E-08  0.47375312E-08
 -0.45291752E-08  0.16155864E-07  0.29387217E-07 -0.79257742E-08 -0.89486065E-07
  0.15859549E-06 -0.41550965E-07 -0.26640034E-07 -0.45952694E-07 -0.37008198E-08
 -0.59828765E-08 -0.11172188E-08 -0.58271776E-08 -0.48246978E-07  0.20539824E-06
 -0.59485210E-07  0.42201132E-08 -0.29917453E-07 -0.39715777E-08 -0.71844878E-08
  0.11024608E-07 -0.13376158E-07 -0.58698347E-07  0.18940486E-06 -0.46393189E-07
 -0.49212849E-07  0.89007089E-07 -0.86830811E-08 -0.23521484E-07 -0.16285386E-07
  0.84553394E-08  0.13510215E-06 -0.10389105E-06  0.15581540E-06 -0.39483836E-07
  0.61146306E-07 -0.37536500E-07 -0.77045098E-08 -0.39843306E-07 -0.18298512E-07
  0.72560511E-07 -0.54174884E-08  0.14991965E-07 -0.56143163E-08 -0.51884858E-07
  0.88897855E-08  0.40609410E-07  0.72002066E-08 -0.22909896E-07 -0.91254089E-07
  0.22859040E-06 -0.40262948E-07 -0.40148719E-07  0.92448803E-07 -0.10415805E-07
 -0.16456537E-07 -0.11635062E-07  0.30560671E-08 -0.31058101E-07  0.17650644E-06
 -0.46452852E-07  0.19307125E-07 -0.41364411E-07 -0.77454385E-08  0.46757623E-09
 -0.65051778E-08  0.17069245E-07 -0.14322348E-07  0.17231364E-06 -0.50679883E-08
 -0.17687515E-10 -0.41347788E-07 -0.62095348E-08  0.36469014E-08 -0.54300798E-08
  0.38855009E-07  0.28573056E-07  0.58572891E-07  0.49758066E-08 -0.16287286E-07
  0.11032183E-07 -0.14830148E-07  0.40184556E-07  0.25201999E-08 -0.10458254E-07
 -0.84086856E-08  0.31471421E-06 -0.32149064E-07  0.27559281E-07 -0.61184634E-07
 -0.63917758E-08  0.23136124E-07 -0.83061978E-08 -0.61569095E-09  0.43648575E-07
  0.17053165E-06 -0.57337267E-08  0.40674684E-07 -0.60116377E-07 -0.11279304E-10
  0.18203034E-07  0.26269702E-07  0.20487175E-07  0.20596621E-07  0.19851586E-06
 -0.22201908E-07  0.57726740E-08 -0.38453960E-07  0.17495940E-07  0.24170503E-07
 -0.11784636E-07  0.35620760E-07 -0.26704888E-07  0.91645636E-07 -0.19295730E-08
 -0.12959770E-07  0.32306804E-07 -0.14053005E-07 -0.30484547E-08  0.52440862E-08
 -0.19056119E-07 -0.22622793E-07  0.24263733E-06  0.10875022E-06  0.53526738E-08
 -0.84468349E-07  0.10135940E-07  0.31284786E-07 -0.80811883E-08  0.13964722E-07
  0.22527340E-05 -0.17368396E-05 -0.96367234E-06  0.14748141E-05 -0.59356537E-06
  0.26246165E-05 -0.88277369E-05 -0.11819016E-05 -0.20739677E-05  0.33777502E-05
  0.81027428E-06  0.30569119E-05 -0.37973287E-05 -0.85798621E-05  0.26838319E-05
  0.30585599E-05  0.17958200E-06 -0.17146208E-05  0.14708232E-05 -0.56451816E-05
 -0.15489423E-05  0.25203022E-05  0.13747513E-05 -0.63628552E-06 -0.10818148E-04
 -0.12870571E-05  0.30003393E-05  0.10352975E-05  0.19086344E-05  0.51936499E-06
 -0.86748165E-05  0.15908322E-04 -0.17874732E-05 -0.13681379E-05 -0.38403685E-06
  0.24102750E-05  0.28194767E-05  0.14932752E-04 -0.37123720E-05  0.89084805E-06
 -0.14732874E-04  0.28582345E-06  0.73606652E-05 -0.91591019E-06  0.72992863E-06
 -0.12793378E-05  0.94141349E-05 -0.28279659E-05  0.29900110E-06  0.10421202E-04
  0.21277339E-07 -0.49855188E-05 -0.23513149E-06 -0.27421405E-05  0.12480465E-05
  0.11904541E-05 -0.16404588E-05  0.18917569E-05  0.48142417E-05 -0.57696778E-05
  0.57969631E-06 -0.29306711E-05 -0.43615746E-06  0.27973210E-05  0.90916547E-05
  0.10483283E-08  0.18895778E-05 -0.48453382E-05  0.87238717E-06  0.19266031E-05
  0.54118238E-06  0.36019931E-05  0.34888129E-05 -0.18147868E-04  0.27888585E-05
 -0.27824353E-04  0.12947729E-03 -0.31339798E-04 -0.17903382E-04 -0.68220618E-05
 -0.26683463E-05  0.56174267E-05 -0.14080521E-04  0.12617618E-05  0.43537860E-05
 -0.35444963E-05 -0.60579696E-06  0.19115033E-05  0.19869292E-05  0.37585639E-08

 -0.25285647E-07  0.66139850E-06  0.21835253E-07  0.36674556E-07 -0.23189918E-07
  0.47577597E-07 -0.43435237E-08 -0.35491125E-07  0.37110727E-08 -0.29282168E-07
  0.67507375E-06  0.16933435E-07  0.39778305E-07  0.21665398E-07  0.32025904E-07
 -0.12821326E-07 -0.42982452E-07  0.12033311E-07 -0.36854516E-07  0.65369139E-06
  0.42363587E-07  0.27027091E-07  0.31944674E-07  0.99952046E-08  0.28062458E-07
 -0.88529743E-08  0.19769401E-07  0.21467505E-07  0.56360973E-06  0.45254625E-07
  0.22250187E-07  0.18600295E-07 -0.23902564E-07  0.51209922E-08  0.12261946E-07
 -0.54241727E-08 -0.14607642E-08  0.72975160E-06 -0.20882233E-06  0.52481198E-08
 -0.22174100E-07  0.16037771E-07 -0.10158115E-07  0.23690289E-07  0.35456504E-07
 -0.53948178E-07  0.67922798E-06  0.12092180E-06 -0.37934857E-08  0.15094117E-07
  0.12871937E-07 -0.15897525E-07 -0.57432566E-08 -0.63533190E-09  0.96612270E-08
  0.74017868E-06  0.17250982E-07  0.13847796E-07  0.14043511E-07 -0.12730671E-07
  0.63658318E-08 -0.32176453E-08 -0.92718251E-08  0.75335204E-07  0.67317117E-06
 -0.85320578E-07  0.25999298E-07  0.45591133E-08  0.22803366E-07 -0.68836295E-08
  0.73755946E-08 -0.24277456E-07  0.16439301E-07  0.63914147E-06 -0.23147547E-07
 -0.19845211E-07 -0.88273134E-08  0.35159864E-08 -0.84746645E-08 -0.16326834E-08
  0.28509718E-07 -0.13667099E-07  0.63148143E-06 -0.13581311E-06  0.19154246E-08
 -0.31869411E-08  0.16176947E-07 -0.62175633E-08  0.74715246E-08 -0.25925494E-07
 -0.18926007E-07  0.69456418E-06  0.43241512E-07  0.25659661E-07  0.14215776E-07
 -0.26540327E-07  0.88318488E-08  0.29861169E-07 -0.14901716E-07 -0.36071042E-07
  0.68471134E-06  0.81249851E-08 -0.26558507E-07  0.20760123E-07  0.61718969E-07
  0.75985409E-08 -0.86647323E-09  0.11988349E-09 -0.50991088E-07  0.66427702E-06
  0.61407179E-07  0.25444443E-08  0.30646979E-07 -0.19774304E-07 -0.92003100E-08
  0.32864899E-07 -0.23751343E-07  0.79018426E-07  0.71085928E-06 -0.35580062E-07
  0.96298544E-08  0.21463892E-07 -0.11817369E-07 -0.21215578E-08 -0.21672397E-07
  0.18562027E-07 -0.88403531E-07  0.74558767E-06  0.12440104E-06  0.42503417E-07
  0.22346950E-07  0.11091669E-07  0.15786560E-07 -0.91979492E-08  0.10230901E-07
  0.13720112E-05 -0.26308835E-05  0.71697598E-05  0.61726897E-06  0.14612906E-05
  0.54310423E-05  0.33767328E-05 -0.40133808E-05 -0.97655695E-06  0.48726920E-05
 -0.11024533E-05 -0.58902804E-05  0.37326485E-05  0.18417188E-05 -0.95652117E-06
 -0.47312910E-06  0.28116863E-05  0.97109506E-06 -0.16026867E-05  0.40981060E-05
 -0.14363929E-06  0.16045158E-05 -0.11394751E-05 -0.56360023E-05  0.38984074E-05
  0.30109200E-05  0.73722786E-06  0.71742571E-06  0.19632105E-05 -0.10916501E-05
  0.13327244E-05 -0.41434568E-05 -0.20113097E-05  0.44891438E-06  0.21240705E-06
 -0.60177388E-06 -0.32802290E-05 -0.56949141E-05 -0.75846452E-06 -0.20791299E-05
  0.19804943E-05  0.38732336E-05 -0.14006392E-05 -0.53820432E-05  0.26355993E-05
 -0.19804599E-05 -0.76517415E-05 -0.77972120E-06  0.13341568E-06  0.12611994E-05
 -0.71473907E-05  0.32757283E-05  0.29696687E-05 -0.22737478E-05 -0.16758494E-05
  0.15846305E-05 -0.75209483E-05 -0.38081710E-05 -0.66840133E-05  0.52151346E-05
 -0.20562616E-06  0.63735542E-05  0.27231099E-05  0.62235057E-05 -0.64431518E-06
 -0.10980872E-05  0.34740042E-06 -0.27591265E-06 -0.14027713E-05  0.58802403E-06
 -0.20678563E-05 -0.81934080E-06  0.50280280E-06  0.11253526E-05 -0.10983479E-04
 -0.27926440E-04 -0.31339798E-04  0.12357474E-03  0.23366984E-05  0.64672767E-05
 -0.64560044E-05 -0.16050661E-05 -0.11937171E-05 -0.15281555E-05 -0.43618716E-06
  0.13718624E-05 -0.37159959E-05 -0.23186291E-05 -0.23092370E-05 -0.18957039E-05

  0.21397344E-07  0.50352073E-06 -0.60715490E-08  0.62051613E-08 -0.25139832E-07
 -0.52758379E-09  0.15572575E-07  0.18982856E-07 -0.23510407E-07 -0.75443929E-07
  0.58460400E-06 -0.45062761E-07 -0.22873017E-07 -0.28003448E-08  0.11226902E-07
 -0.15067768E-08 -0.33197489E-08  0.18268343E-07 -0.19869815E-07  0.52749201E-06
  0.17016459E-07  0.53074449E-08 -0.10050800E-07  0.48041698E-09 -0.29081814E-08
 -0.12294452E-07  0.14185334E-07 -0.89038426E-07  0.41590969E-06 -0.77933208E-07
 -0.66063109E-07 -0.17207005E-07  0.26067605E-07  0.85277245E-07  0.15755193E-08
  0.33832713E-07  0.55504361E-07  0.54774023E-06  0.54949122E-07  0.23256514E-07
  0.73550124E-08 -0.14047351E-07 -0.43334223E-07 -0.55260848E-07 -0.30703768E-07
 -0.99552483E-08  0.51938041E-06  0.51913003E-07  0.37486793E-07  0.49458079E-07
 -0.11414639E-07 -0.17523643E-07  0.90266696E-08  0.81869792E-08 -0.45153253E-07
  0.51004118E-06 -0.83319384E-08  0.41308405E-08  0.22808555E-08 -0.57419042E-08
  0.39542169E-07  0.77415616E-08  0.69125749E-08  0.32441739E-07  0.50937152E-06
  0.68937761E-07  0.27075745E-07  0.16583246E-07 -0.79334886E-08  0.27578029E-07
 -0.42089754E-08 -0.37447646E-08 -0.10309779E-06  0.49238191E-06  0.21230717E-07
  0.15701923E-07  0.10537476E-07 -0.23929099E-08  0.47185480E-07 -0.17522590E-08
 -0.49031149E-09 -0.61117480E-08  0.48690175E-06  0.60596667E-07 -0.32190044E-08
 -0.12744497E-07  0.19689378E-07  0.39534544E-07  0.79772533E-08  0.24272740E-07
  0.43972615E-07  0.55564731E-06  0.45402288E-07 -0.57453737E-08 -0.87741549E-08
  0.14483172E-07  0.16543537E-07 -0.38635473E-08  0.10219380E-07 -0.13687900E-06
  0.47470119E-06  0.62999020E-07 -0.59958885E-07  0.89437669E-09  0.13249970E-07
  0.29117068E-07  0.72611193E-08 -0.55238346E-08 -0.37421093E-07  0.52362049E-06
 -0.30491534E-07 -0.51126084E-07 -0.11710702E-07 -0.11754447E-08  0.28878883E-07
  0.10545665E-07 -0.12645963E-07  0.94562632E-07  0.52665982E-06  0.30714751E-07
 -0.43434882E-07 -0.40465180E-07  0.18081853E-07  0.56989565E-07  0.75305810E-08
  0.95654216E-08 -0.33093870E-07  0.43058606E-06  0.61357385E-07 -0.34336151E-07
 -0.28127111E-07  0.31981455E-08 -0.67619411E-08  0.73526561E-08  0.21469459E-07
  0.40088932E-05 -0.57631092E-05 -0.54448242E-06  0.27091525E-05 -0.35621209E-05
  0.40893834E-05  0.50334202E-05 -0.16788658E-05  0.36171580E-06  0.73313027E-05
 -0.55820939E-05 -0.58236851E-06  0.55077849E-06  0.20973216E-05 -0.22416165E-05
 -0.14839824E-05 -0.29809156E-05  0.50157636E-06  0.17311401E-05 -0.32732417E-05
  0.32376466E-05 -0.31250770E-05 -0.23269919E-05  0.61662138E-06  0.58274835E-05
  0.17092352E-05 -0.92946097E-06 -0.54195283E-05 -0.13845307E-05 -0.29217973E-06
 -0.70608906E-06  0.20417391E-05  0.43613258E-08  0.33311140E-05 -0.17658297E-05
 -0.70080675E-06 -0.33584332E-05 -0.31078735E-06  0.12787004E-05  0.39240182E-05
  0.38409460E-05  0.82796282E-06  0.42977928E-06 -0.45328226E-05 -0.84930012E-06
 -0.83145208E-05 -0.50325006E-05 -0.19472173E-05 -0.48781420E-05  0.45578192E-06
  0.96227520E-06 -0.23048122E-05  0.14061328E-05 -0.23263033E-05 -0.19567152E-06
  0.14975846E-05  0.35511132E-05 -0.30850395E-07 -0.94074971E-06  0.18268819E-05
  0.15678681E-06  0.10514883E-05 -0.18953613E-05 -0.21015910E-05  0.46305776E-05
  0.14975093E-05 -0.26399053E-05  0.30410617E-05  0.10844611E-05 -0.32890195E-05
 -0.79267627E-06  0.35371417E-06  0.14550207E-05  0.22083691E-05  0.12268727E-05
 -0.18735955E-04 -0.17903382E-04  0.23366984E-05  0.82782263E-04 -0.61292345E-05
 -0.27677029E-05 -0.30070020E-05  0.54011738E-05 -0.78938382E-06 -0.49631848E-05
  0.29342897E-05  0.98223228E-07  0.49177674E-05 -0.39953165E-06  0.12243940E-06

 -0.60098251E-07 -0.47299787E-06 -0.53480661E-07  0.17729776E-07  0.27365748E-07
 -0.23250001E-07 -0.27873633E-07 -0.19349938E-07  0.44682673E-08  0.96076554E-07
 -0.48437642E-06 -0.15649960E-08 -0.84399428E-08  0.22116354E-07 -0.29191311E-07
 -0.14086004E-07  0.54148908E-07 -0.20140636E-07  0.29370129E-07 -0.50437397E-06
 -0.45993239E-07 -0.40423347E-07  0.56460612E-08  0.10840458E-07  0.30911304E-07
  0.18746128E-07  0.86042862E-08  0.79963931E-07 -0.52097902E-06 -0.11580769E-07
  0.16401673E-07  0.47120016E-08  0.18207254E-07  0.71692340E-08  0.25086840E-08
  0.23134830E-07 -0.13651746E-06 -0.52209640E-06 -0.31268506E-07  0.40558687E-07
 -0.57147535E-07  0.34829300E-07 -0.15028631E-07 -0.49399296E-07 -0.15243139E-07
  0.35326937E-07 -0.43720726E-06 -0.68271383E-07  0.20558786E-07  0.11047505E-08
 -0.33483791E-08  0.17887191E-08  0.10806315E-07  0.11450342E-08 -0.68342936E-07
 -0.40724810E-06 -0.38681010E-07 -0.21113443E-07 -0.59724944E-09 -0.13921337E-08
 -0.15507833E-07  0.11547054E-07  0.10816047E-07 -0.19914171E-07 -0.39295387E-06
  0.10920701E-06  0.22913082E-08  0.30302205E-08  0.10569792E-07 -0.34120778E-08
  0.14963227E-08  0.21372566E-08 -0.39514730E-07 -0.48693846E-06  0.43169353E-07
  0.57655781E-07 -0.38072320E-08  0.26883199E-08  0.48820736E-09 -0.19452992E-07
 -0.77561561E-09 -0.81171997E-07 -0.45142056E-06 -0.28647530E-07  0.11005502E-07
  0.10068101E-07  0.57153017E-08  0.33664713E-08 -0.29615594E-07  0.17791190E-07
 -0.99959414E-07 -0.43966330E-06 -0.40828826E-07  0.58359979E-08 -0.99831176E-09
  0.43347702E-07  0.15925726E-07 -0.27862922E-07  0.13519695E-07 -0.62097815E-07
 -0.47291982E-06  0.91603009E-08 -0.85055094E-08  0.13300633E-07 -0.66927584E-09
  0.20453583E-07 -0.21122977E-07 -0.42229720E-09  0.61954805E-07 -0.50066396E-06
 -0.30904156E-07 -0.56156953E-08 -0.33345030E-08  0.22988895E-07  0.10250300E-07
 -0.51021563E-08  0.90336168E-09  0.19744446E-07 -0.48784147E-06 -0.35213435E-08
 -0.26428986E-07  0.24946475E-07 -0.39113802E-08 -0.10720095E-07 -0.28894237E-07
  0.85293101E-08  0.92527123E-07 -0.37617338E-06 -0.14870508E-06 -0.40176955E-08
  0.46053723E-08 -0.22884413E-07 -0.43956170E-08  0.17494264E-07  0.25097039E-07
  0.44778942E-05  0.33213867E-05  0.22182172E-05 -0.14051322E-05  0.16756116E-05
 -0.42714797E-05  0.19005680E-05  0.11552214E-05 -0.34579594E-05 -0.80354618E-05
  0.48236251E-06  0.21888727E-05 -0.39880991E-05 -0.37165529E-06  0.45348928E-05
 -0.18841197E-06  0.74983418E-05 -0.42809185E-06 -0.20404636E-05 -0.27818799E-06
 -0.22194897E-05 -0.68770023E-05 -0.80051562E-06  0.30221135E-05 -0.10016442E-05
 -0.18528794E-05 -0.75204376E-06  0.20711059E-05  0.39013265E-05 -0.57465648E-07
  0.38448048E-05 -0.70923800E-06 -0.18710827E-05  0.35379696E-06  0.34482460E-05
  0.91775281E-06 -0.63611388E-05  0.32760034E-05  0.14132717E-05  0.48856306E-06
 -0.14022980E-05 -0.39722729E-05 -0.97853933E-06 -0.13897560E-05  0.11082431E-05
  0.19114932E-05 -0.72141251E-06  0.13123555E-05 -0.15694684E-05 -0.26227720E-05
  0.36798261E-05 -0.39250641E-06 -0.60423283E-05  0.77054800E-06 -0.36946651E-05
  0.18164459E-07 -0.18253156E-05  0.66595323E-05 -0.33314960E-05  0.36597961E-05
 -0.62545590E-06 -0.48696220E-05  0.60111626E-06  0.30527920E-05 -0.14368094E-05
  0.70935522E-05 -0.44861955E-05  0.27407446E-06 -0.77898807E-07  0.11060564E-05
  0.54094667E-06  0.31478559E-06 -0.14991067E-05 -0.13906139E-05 -0.13024255E-05
  0.50658358E-05 -0.68220618E-05  0.64672767E-05 -0.61292345E-05  0.80169352E-04
 -0.13451497E-04 -0.76291795E-05 -0.21436597E-06  0.16276061E-06 -0.24475004E-05
  0.23202612E-05 -0.25868950E-05  0.20064271E-05 -0.37415437E-05 -0.34430795E-06

  0.13592046E-07  0.92233380E-07  0.18026742E-07  0.12579231E-07  0.25821840E-07
 -0.16613286E-07 -0.26580121E-07 -0.95235511E-08  0.10377741E-07 -0.39029355E-07
  0.12138510E-06  0.33313011E-07 -0.86535610E-08 -0.29866192E-07 -0.29572098E-08
  0.31553265E-07  0.92995873E-08 -0.57130919E-08  0.73441753E-08  0.28698960E-06
 -0.30081231E-07  0.13459072E-07 -0.28836096E-07 -0.14017337E-07  0.15771350E-07
  0.48453035E-08  0.37961352E-07 -0.69230588E-07  0.10656733E-06 -0.43479660E-07
 -0.11666206E-07 -0.14334237E-08  0.10204966E-07  0.43279620E-07  0.12355526E-07
  0.31012255E-07  0.83313133E-07  0.34430182E-06 -0.29944350E-07 -0.38216233E-07
 -0.50212324E-07  0.34236511E-07 -0.39847878E-07 -0.12271504E-07  0.17533694E-07
  0.72712499E-07  0.22706385E-07  0.33786955E-07  0.84958867E-10  0.81008932E-08
  0.50945897E-08  0.13620972E-07  0.18403646E-07 -0.77421766E-08  0.12163801E-07
  0.99821530E-07  0.13101633E-07  0.29243284E-08 -0.25250099E-07  0.44739713E-08
  0.11821569E-07 -0.31342685E-08 -0.94454889E-08  0.54486814E-07  0.88121205E-07
  0.38174887E-08 -0.15997438E-07  0.21235816E-07 -0.16923428E-07 -0.10424140E-07
  0.97321189E-08 -0.28016011E-07  0.12528745E-07  0.18157861E-06 -0.58254329E-07
 -0.19012701E-07  0.15122618E-07  0.12550297E-07 -0.39048377E-08  0.63877727E-08
  0.18095155E-07  0.88018525E-07  0.91799329E-07  0.67406951E-07  0.28332383E-08
  0.73390114E-09 -0.74668976E-08  0.14694014E-07  0.13600744E-07  0.18394488E-08
  0.61498439E-07  0.13447486E-06  0.70891334E-07  0.12790906E-07 -0.90103717E-08
 -0.20270338E-07  0.14414698E-07  0.15391759E-07 -0.27684193E-07  0.47322970E-07
  0.14210793E-06 -0.25155523E-07  0.17857648E-07  0.79468576E-08 -0.31139249E-07
 -0.21721659E-07 -0.16281428E-07  0.32155766E-07 -0.48638129E-07  0.19662830E-06
 -0.11523766E-07 -0.13426222E-08  0.16046563E-07 -0.33771092E-09 -0.11332948E-07
 -0.19027669E-07  0.11613118E-07  0.17721640E-07  0.18331886E-06  0.68666581E-07
  0.15528701E-07 -0.50522710E-07  0.25225731E-07  0.73719783E-08 -0.56675721E-08
 -0.35243936E-07  0.94494976E-07  0.12532053E-06  0.15426447E-07  0.12616640E-08
  0.37670808E-07  0.10373262E-07  0.33799913E-07 -0.15504270E-07  0.19558942E-07
  0.20648189E-06 -0.22491745E-05 -0.22075658E-05  0.25710886E-05 -0.34613921E-05
 -0.51842234E-05 -0.20269768E-06  0.39717105E-05  0.15972852E-05  0.66941431E-06
 -0.37742997E-05 -0.85299543E-07 -0.17886506E-06 -0.12088933E-05 -0.17706500E-05
  0.70889496E-06 -0.23235058E-05 -0.84015191E-06  0.58883754E-05 -0.43900788E-05
  0.15237426E-05 -0.48499562E-06  0.18521407E-05  0.20081325E-05 -0.19028377E-05
  0.70767622E-06 -0.28888230E-05 -0.51940174E-06  0.44544379E-05 -0.19570771E-05
 -0.10964328E-05 -0.20556039E-05  0.14448913E-05  0.80981696E-06  0.39642178E-06
  0.64169432E-05  0.45549331E-05  0.15001574E-06  0.15930580E-05 -0.47294061E-05
  0.10438682E-05  0.54683813E-07 -0.74542883E-06  0.52842037E-05 -0.22350770E-05
 -0.70228081E-06  0.84217581E-05 -0.43698895E-06  0.86457547E-07  0.83983900E-06
  0.78305757E-07 -0.29941109E-05 -0.26931888E-07  0.34923893E-06  0.29069505E-05
 -0.51951106E-05 -0.18039208E-05 -0.11402119E-05  0.97803482E-06  0.16952705E-05
 -0.20170041E-05  0.22925980E-05  0.86262528E-06 -0.14142267E-05  0.32049552E-06
 -0.60619169E-05  0.12272860E-05 -0.39966142E-06 -0.25628198E-05  0.18420274E-05
  0.17324824E-05 -0.11131449E-05  0.20700793E-05  0.61252964E-06  0.27657957E-05
 -0.15085061E-05 -0.26683463E-05 -0.64560044E-05 -0.27677029E-05 -0.13451497E-04
  0.75091886E-04 -0.73446577E-06 -0.56792815E-06 -0.34766886E-05 -0.14600515E-05
  0.23610554E-05  0.14852290E-05 -0.42352958E-06 -0.15340871E-05  0.38132011E-05

 -0.27991012E-07  0.11712461E-06  0.24592400E-07  0.44497279E-07 -0.49215913E-08
 -0.25533636E-07 -0.29964588E-07 -0.10613070E-07  0.14682645E-07 -0.10366864E-06
  0.16780365E-06  0.56088598E-07 -0.54502789E-07  0.34489761E-07 -0.25904215E-08
 -0.41750092E-07 -0.18541131E-07 -0.13999665E-07 -0.10758346E-06  0.95398614E-07
  0.50010879E-08 -0.21370655E-07 -0.21110413E-07  0.10519644E-08 -0.25166300E-07
 -0.29079862E-08  0.14752184E-07  0.33081950E-07  0.14947832E-06 -0.24909749E-07
 -0.24861649E-07  0.17338332E-07 -0.44189088E-08 -0.38176411E-07 -0.18428076E-07
  0.81436198E-08 -0.19085176E-06  0.19403988E-06 -0.63480801E-07 -0.39164716E-07
  0.55416487E-08  0.20791890E-07 -0.31881881E-07  0.28305714E-07 -0.81195718E-08
 -0.99674290E-07  0.10081833E-06 -0.20948275E-07  0.20006552E-07  0.30640395E-09
  0.34976961E-08  0.30647978E-07 -0.75981379E-07  0.21619776E-08 -0.94806532E-07
  0.57631963E-07  0.24562316E-07 -0.37809886E-07 -0.23424075E-07  0.21480874E-07
  0.15051163E-07 -0.36574142E-08 -0.75188534E-08  0.29862180E-07  0.92007591E-07
 -0.52506511E-07  0.87077323E-07  0.75898501E-08 -0.28817162E-07 -0.28084776E-07
 -0.20746756E-07 -0.96219816E-08 -0.50898637E-07  0.77203976E-07 -0.49408980E-07
 -0.18842791E-07 -0.23011604E-07  0.70805522E-08 -0.88354222E-08  0.87919878E-08
 -0.32423828E-08 -0.46477400E-07  0.49629890E-07  0.27244679E-07  0.86997091E-07
  0.51208507E-08 -0.17178581E-07 -0.13695734E-07 -0.28136508E-07  0.51897074E-09
  0.10970138E-06  0.18327135E-06 -0.23182602E-07 -0.26604288E-07  0.38841398E-08
  0.22766580E-08 -0.48075075E-09  0.31455428E-07 -0.13491511E-07 -0.27483302E-06
  0.14202079E-06  0.39539702E-07 -0.15810350E-07  0.13622323E-07  0.79741679E-09
  0.30624610E-07  0.52155528E-07  0.55862288E-08  0.18662794E-06  0.38166257E-07
 -0.87171043E-07  0.13023580E-07 -0.41977610E-08 -0.52635175E-08  0.46712771E-08
  0.24605322E-08 -0.19813311E-07 -0.51201971E-08  0.87316554E-08  0.12156376E-07
  0.17416666E-07  0.25834292E-07  0.19197390E-08 -0.25301811E-08  0.11423278E-07
 -0.48639559E-08 -0.77690101E-07  0.15532719E-06  0.19160440E-07  0.33139439E-07
 -0.15580277E-07  0.26510297E-07  0.31030608E-07  0.17906407E-07 -0.10991982E-07
 -0.66682681E-05  0.63016837E-05 -0.40986564E-06  0.10557204E-05  0.38948045E-05
  0.17923418E-05  0.26027090E-05 -0.21118076E-05 -0.31290294E-05 -0.94683905E-05
  0.17253974E-05  0.29797384E-05  0.83088805E-05 -0.26305633E-05  0.13124844E-05
 -0.25158057E-05  0.43285903E-05 -0.23590610E-06  0.20061443E-05  0.51604061E-05
 -0.25431167E-05  0.92764098E-05 -0.98484216E-05 -0.37506928E-06  0.69830981E-05
 -0.15098204E-05 -0.59142552E-06 -0.89341881E-06 -0.72759043E-05 -0.22496562E-05
  0.11040822E-04  0.11723264E-05 -0.22712215E-05 -0.24022821E-05 -0.46299148E-05
  0.23141724E-05  0.70832080E-05  0.51618609E-06 -0.40570494E-05  0.84937082E-05
  0.34047120E-05 -0.42500771E-05  0.57479425E-05  0.49741933E-05  0.28197089E-05
 -0.31541602E-05  0.54510963E-05  0.35985888E-05  0.19413481E-05  0.65002420E-05
 -0.23003420E-05 -0.89098675E-05 -0.41000178E-05 -0.41203915E-05  0.32230915E-06
 -0.59853391E-05 -0.37540210E-05  0.62580033E-05 -0.17636819E-05 -0.15387081E-05
 -0.32461551E-05  0.20715339E-05 -0.28996763E-05 -0.50402236E-05 -0.31423894E-06
 -0.86501100E-06  0.75361631E-05  0.15985046E-05 -0.45376178E-05  0.78410129E-06
 -0.13974910E-05  0.26214032E-05 -0.34312563E-05  0.18251243E-05  0.33954805E-05
 -0.32174927E-05  0.56174267E-05 -0.16050661E-05 -0.30070020E-05 -0.76291795E-05
 -0.73446577E-06  0.12224362E-03 -0.90330657E-05  0.77104019E-05  0.18692611E-05
  0.30729441E-05  0.12764607E-05  0.77470428E-05  0.16817140E-05 -0.29071352E-05

  0.13358190E-06 -0.18275168E-05  0.35393642E-07  0.12775651E-07  0.30897067E-07
  0.56806932E-09  0.14867689E-07  0.12275867E-07 -0.10113832E-07  0.59326819E-07
 -0.17609828E-05  0.19774736E-07  0.22286626E-07 -0.94974895E-07  0.38942837E-08
 -0.45002350E-08 -0.14107755E-07 -0.19022240E-08  0.32263716E-07 -0.17498951E-05
  0.37452191E-07 -0.66374147E-08 -0.70159638E-08  0.16919039E-08  0.29011393E-09
 -0.88289201E-08 -0.15473853E-09  0.37109102E-07 -0.14925623E-05 -0.40896610E-07
 -0.30027394E-07 -0.71599262E-08 -0.31825207E-07  0.43722006E-07  0.28556002E-07
 -0.73614904E-08  0.51320004E-07 -0.17355602E-05  0.12559602E-07 -0.37766010E-07
  0.51153930E-07 -0.32839254E-07 -0.16355312E-08 -0.46036532E-08  0.43357213E-07
  0.14551498E-07 -0.14654929E-05  0.38387641E-07  0.21618366E-08  0.66665003E-07
 -0.87573937E-08 -0.67706255E-07 -0.41111199E-08 -0.90414748E-08  0.10638206E-06
 -0.18013206E-05  0.39301749E-07 -0.15781750E-07 -0.32580603E-07  0.15494665E-07
  0.21025879E-07 -0.57256486E-10 -0.56320737E-08  0.75292042E-08 -0.17022701E-05
  0.28648648E-07 -0.55973969E-08 -0.15131156E-07 -0.17239570E-07 -0.15471283E-07
 -0.11678353E-07  0.30045316E-08  0.69594940E-07 -0.16316335E-05 -0.64357698E-07
 -0.47899814E-08  0.39653244E-07 -0.25589108E-07 -0.22295903E-08 -0.40773089E-08
 -0.17062880E-07  0.43330560E-07 -0.18698897E-05 -0.33809084E-08 -0.39451056E-07
  0.14203808E-07 -0.20101314E-08  0.19031690E-07  0.49407239E-08  0.12822695E-07
 -0.14482921E-07 -0.16555109E-05 -0.73723123E-07 -0.23012786E-07  0.55674122E-08
 -0.10161102E-07 -0.57253845E-08 -0.22731851E-08  0.18339057E-07  0.31508757E-07
 -0.16651697E-05  0.13511888E-07  0.18210232E-07 -0.71830292E-07 -0.57079469E-08
  0.27030387E-07  0.92665851E-08  0.42040159E-08 -0.30206397E-07 -0.15294055E-05
  0.45036353E-07  0.37150920E-07 -0.38685214E-07  0.62707144E-08 -0.17102245E-07
  0.32016658E-08 -0.73780667E-08 -0.49441378E-07 -0.15966195E-05 -0.10922685E-07
 -0.49616508E-09  0.44515799E-07 -0.23380119E-07  0.29607577E-07  0.30202924E-08
 -0.25629760E-08 -0.11571500E-07 -0.16733903E-05 -0.19034397E-08 -0.20622155E-07
 -0.42865714E-07  0.78854256E-09 -0.20988482E-07 -0.37895074E-08 -0.18369154E-07
  0.10324384E-05 -0.15162576E-04  0.30058255E-05 -0.17151642E-05  0.14655567E-05
  0.11145352E-05 -0.14495548E-05 -0.35150185E-05 -0.27478784E-05  0.15367149E-05
 -0.73513339E-05  0.47146193E-05 -0.49472434E-05  0.28214250E-05 -0.29946192E-05
  0.20124265E-05 -0.41615281E-05 -0.19526485E-06  0.28901999E-05 -0.16309825E-04
 -0.40602766E-07 -0.66183668E-05  0.46766788E-05  0.10276961E-05 -0.16459671E-05
  0.13511673E-05 -0.71209205E-06 -0.15130601E-05  0.67997230E-05  0.43120293E-06
  0.36733824E-05  0.53014416E-05 -0.22882511E-05 -0.25651645E-05 -0.17465800E-06
  0.20656816E-05 -0.16800197E-05 -0.20822841E-04  0.21985056E-05  0.46926335E-06
  0.70928488E-05  0.96441077E-06 -0.13804577E-05  0.13564035E-05 -0.20857366E-05
  0.37354165E-05 -0.11472638E-04 -0.54639603E-05 -0.30641315E-05 -0.54662530E-05
  0.19145182E-05  0.29915895E-06  0.10288958E-05  0.27425939E-05 -0.30825692E-05
 -0.34779423E-05  0.18685265E-06 -0.28928495E-05  0.20804165E-04 -0.36375920E-05
 -0.84875167E-05 -0.11371259E-05  0.66359931E-06  0.38572439E-05 -0.21088839E-04
  0.23595923E-05  0.78081028E-05  0.80476026E-06 -0.16661768E-05  0.26022448E-05
 -0.27020606E-05  0.25814389E-05  0.22121449E-05 -0.15578855E-05  0.52124923E-05
  0.47801668E-05 -0.14080521E-04 -0.11937171E-05  0.54011738E-05 -0.21436597E-06
 -0.56792815E-06 -0.90330657E-05  0.11560138E-03 -0.57174161E-05 -0.13253446E-05
 -0.65199474E-05  0.30049643E-05 -0.73554775E-05  0.24249820E-05  0.26363326E-06

  0.69147409E-08  0.42213890E-06  0.23717403E-07  0.12127111E-07  0.12858162E-08
  0.32666217E-08  0.10070522E-08 -0.23407623E-07  0.62993697E-08  0.27828843E-07
  0.45361959E-06 -0.27429808E-07 -0.96444428E-08  0.35140350E-08  0.64745698E-08
 -0.16008383E-07 -0.25963846E-08 -0.35776653E-07 -0.22045122E-07  0.46013594E-06
 -0.70528453E-07  0.55526290E-08 -0.73515274E-10  0.10147135E-07  0.11910834E-07
 -0.24659840E-07 -0.34488361E-08  0.20818823E-08  0.48016631E-06 -0.50918657E-07
  0.93073978E-08  0.69724109E-09 -0.11812285E-07 -0.29655085E-08 -0.21726220E-07
 -0.16398316E-07 -0.86877576E-07  0.44698064E-06 -0.88754873E-07  0.10078664E-07
  0.30180095E-07  0.76197780E-08 -0.19869832E-08 -0.14685296E-08 -0.28897984E-07
 -0.73030957E-07  0.42880347E-06 -0.26997896E-07 -0.69233627E-07  0.44278729E-08
  0.26782339E-07 -0.56417452E-08  0.37336862E-07 -0.86903177E-08 -0.13311961E-07
  0.43224006E-06 -0.11391391E-06  0.28015506E-08  0.29643440E-08 -0.16706233E-07
 -0.37391415E-08  0.11653632E-07  0.27483368E-07 -0.46391805E-07  0.41632315E-06
  0.35232824E-07  0.21848974E-07  0.76393480E-08 -0.36110102E-07 -0.17217047E-07
  0.18500036E-08 -0.19381820E-07 -0.54378866E-07  0.48420072E-06 -0.13283447E-07
  0.71802958E-08  0.40917739E-07 -0.13311995E-07  0.59539591E-09 -0.12499225E-07
  0.16594269E-07  0.23696564E-07  0.41705738E-06 -0.81057691E-07  0.37640762E-08
 -0.50411046E-08 -0.19421819E-08  0.32725020E-08  0.19774038E-07  0.27669140E-07
 -0.16460117E-07  0.50733863E-06  0.14308838E-06  0.23743952E-07 -0.20618936E-07
  0.30993560E-07 -0.14276340E-07  0.16952710E-08 -0.99983050E-08  0.54562170E-07
  0.29038166E-06 -0.15880419E-06  0.45788833E-07  0.16247806E-07 -0.38530486E-08
  0.94491713E-08  0.69604578E-09 -0.30630765E-07 -0.84466868E-07  0.51671876E-06
  0.97729231E-07 -0.19779851E-08  0.32523764E-07 -0.15758944E-07 -0.22691690E-07
 -0.73045138E-08  0.15295587E-07  0.14590995E-07  0.48504990E-06  0.47881349E-07
  0.15135947E-07 -0.17769118E-08  0.31678796E-08 -0.41324298E-08  0.10987933E-07
 -0.35500227E-08 -0.45077915E-07  0.44669371E-06 -0.31448201E-07 -0.14896265E-08
 -0.58523998E-08  0.62815052E-07 -0.14302233E-07  0.22052741E-07  0.15556563E-07
 -0.67142815E-07  0.10563496E-04 -0.74743484E-05  0.16489762E-05  0.15651546E-05
 -0.91115241E-05 -0.16037505E-05  0.43031313E-05 -0.11232985E-05  0.39414782E-05
 -0.24021548E-05 -0.82265767E-05  0.11812091E-05  0.30515654E-05  0.26305299E-05
 -0.89668320E-06  0.22368535E-05 -0.74567107E-06 -0.34170074E-05 -0.48916660E-05
 -0.16566314E-05 -0.40015116E-05  0.21057041E-05  0.20976332E-05  0.34611291E-06
  0.13804069E-05  0.14319507E-05 -0.22352564E-05 -0.43512945E-05  0.42797946E-05
 -0.36228375E-05 -0.52339898E-06  0.31026794E-05  0.29451850E-05  0.13772222E-05
 -0.39949509E-05 -0.49869829E-05  0.14621733E-05  0.20616790E-06 -0.12836264E-05
  0.20866376E-05  0.93988663E-05  0.32418497E-05 -0.93827687E-06 -0.96969264E-06
  0.21523031E-05  0.14493811E-05 -0.13094341E-05 -0.23165008E-05  0.55016615E-06
 -0.35623537E-06 -0.50030454E-05 -0.21398924E-05 -0.28719862E-05 -0.23554849E-05
 -0.26000681E-05 -0.99173988E-05 -0.16435634E-05 -0.33777875E-05  0.68947221E-05
 -0.19627082E-05  0.16007242E-05 -0.23926464E-05  0.26936553E-05  0.23875013E-06
  0.25216232E-05 -0.77343512E-06 -0.27742686E-05  0.23937505E-05  0.32661307E-05
 -0.33135703E-05 -0.69075726E-05  0.30258719E-05 -0.43904961E-06 -0.62608911E-05
 -0.39048253E-05  0.12617618E-05 -0.15281555E-05 -0.78938382E-06  0.16276061E-06
 -0.34766886E-05  0.77104019E-05 -0.57174161E-05  0.98531993E-04  0.35506342E-05
  0.20499095E-05 -0.45535330E-05 -0.20808937E-05  0.40399202E-05  0.12455987E-05

 -0.14781883E-06  0.35584663E-07  0.18945597E-07 -0.11849496E-07  0.27127174E-07
 -0.21936480E-07 -0.47381169E-07 -0.10639174E-07 -0.42753764E-08 -0.28109429E-07
 -0.10728924E-07  0.16170149E-06  0.72567034E-07 -0.23704323E-07  0.19341401E-07
 -0.89307971E-08 -0.24095579E-08 -0.65762612E-08 -0.99755743E-07 -0.55602970E-07
 -0.21542475E-07  0.14181244E-06 -0.79869367E-08 -0.22051424E-07 -0.18415479E-07
  0.60821481E-08 -0.14998228E-07  0.11768065E-06 -0.65502806E-07 -0.57951188E-07
 -0.20757834E-07  0.14757653E-08  0.12791816E-07  0.14708156E-08  0.40139968E-07
  0.90168357E-08  0.51456815E-07 -0.85008173E-07  0.23153386E-07 -0.44181674E-07
  0.11554964E-07  0.10005214E-07  0.20128368E-07 -0.46615302E-08 -0.98300285E-08
  0.15850623E-06 -0.13185603E-06  0.20014609E-06  0.75556381E-07  0.55233447E-08
  0.37537253E-07 -0.31869468E-07  0.21944839E-07 -0.52726426E-08 -0.22796242E-07
 -0.90326343E-07 -0.72359055E-07  0.54030719E-07  0.66651960E-09 -0.31525433E-07
  0.39223582E-08 -0.40504442E-07  0.53089018E-08 -0.98162644E-07 -0.45138320E-07
 -0.48017265E-07 -0.14936404E-07 -0.11990616E-07 -0.17120704E-07  0.12445308E-07
 -0.19739820E-07 -0.56359295E-08 -0.12321019E-06 -0.26977071E-07 -0.30919513E-07
 -0.11401675E-06  0.47711038E-07 -0.87545354E-08  0.65649633E-08  0.17852825E-07
 -0.42167778E-08 -0.11017556E-06 -0.96889799E-07 -0.28977102E-07 -0.18608546E-07
 -0.29829340E-07  0.20839212E-07  0.29706699E-07 -0.48100418E-08 -0.56078936E-08
  0.30648911E-07 -0.12594261E-06 -0.11346901E-07 -0.56573216E-07  0.15014789E-07
  0.31246553E-09 -0.35756251E-07  0.39074887E-07  0.21145865E-07 -0.89126976E-08
 -0.66836415E-07  0.91622922E-08 -0.31193128E-07  0.34921335E-07 -0.82915624E-08
 -0.46748672E-07 -0.54091928E-07 -0.58657433E-08  0.52604823E-07  0.36121055E-07
  0.66744560E-07 -0.60271359E-07  0.40630079E-08  0.37243201E-07  0.34742517E-08
  0.25254702E-08 -0.10204341E-07  0.71001446E-07 -0.45753264E-07 -0.22728867E-07
  0.10381699E-07 -0.24861527E-07  0.27192170E-08 -0.50100575E-07 -0.29312756E-07
  0.50894723E-08 -0.10606533E-06 -0.37462155E-07  0.60654525E-08  0.47980385E-07
 -0.26475229E-07  0.10001528E-07  0.44545968E-07 -0.23218722E-07 -0.24390167E-07
  0.39984189E-05  0.19785471E-05 -0.87881153E-05 -0.14740221E-04  0.37547889E-05
  0.68446447E-06 -0.11776264E-04 -0.40107458E-05  0.23451900E-05 -0.99675745E-05
 -0.24445790E-05  0.27164062E-05  0.14010857E-04 -0.17662389E-05 -0.12804291E-05
  0.26569112E-05  0.16450487E-05 -0.14481198E-06 -0.57590256E-05  0.11984872E-05
 -0.41958499E-07 -0.56758418E-05  0.64446282E-06  0.48191132E-06 -0.64325219E-07
 -0.32303037E-05  0.33288828E-05  0.35664417E-05 -0.53856073E-06  0.58917371E-05
 -0.68169006E-06 -0.43523964E-05  0.19430776E-05 -0.19963836E-05  0.72921983E-05
  0.17524431E-05  0.11878775E-04 -0.49776568E-07  0.14212620E-05 -0.16835256E-04
 -0.16065303E-05  0.39539725E-05  0.59158346E-05  0.33554125E-06 -0.63688261E-06
  0.30503471E-05  0.34359508E-05 -0.30405635E-05  0.93577201E-05 -0.29293273E-05
  0.12005198E-05 -0.60951357E-06 -0.61483380E-05  0.33672917E-06  0.17205028E-05
 -0.57108593E-07 -0.60125895E-05 -0.27514230E-05  0.28468318E-05 -0.21656372E-05
 -0.10836801E-05 -0.80727197E-05  0.61536769E-06  0.29569258E-05 -0.10803522E-05
  0.25910073E-05 -0.42692272E-05 -0.32164421E-06  0.26085482E-05 -0.31272047E-05
  0.44665040E-05 -0.16414797E-06  0.10303285E-05 -0.30494411E-06  0.41553228E-06
 -0.32521329E-05  0.43537860E-05 -0.43618716E-06 -0.49631848E-05 -0.24475004E-05
 -0.14600515E-05  0.18692611E-05 -0.13253446E-05  0.35506342E-05  0.15225243E-03
 -0.27542519E-04 -0.28130282E-04 -0.90986783E-05  0.78721551E-05  0.12854887E-05

  0.86551088E-07  0.48448051E-06 -0.12479145E-07  0.35786088E-07  0.15248540E-07
 -0.18441721E-07 -0.59836351E-07 -0.25811188E-08 -0.28366731E-08 -0.77827987E-07
  0.37549274E-06 -0.28947970E-07 -0.38428474E-07  0.35962461E-07  0.79295167E-08
 -0.14660379E-07 -0.49768685E-08 -0.20993916E-07  0.78882450E-07  0.60517499E-06
 -0.48557926E-07  0.44804893E-08  0.45643792E-08 -0.28699289E-07 -0.40725423E-08
 -0.66237329E-08  0.20064304E-07 -0.10128031E-07  0.60568528E-06  0.59648230E-07
 -0.23543528E-07 -0.77212420E-07  0.15584461E-07  0.50562077E-07  0.13690808E-08
  0.83576619E-08 -0.25077078E-07  0.68815212E-06  0.10415876E-06 -0.78430041E-09
 -0.18728115E-07 -0.11131332E-07  0.88524565E-09  0.26616787E-08 -0.33547164E-07
  0.88857145E-07  0.14631429E-06  0.55407079E-07 -0.11412669E-07  0.82148492E-08
  0.28706542E-07  0.61169240E-07  0.15716141E-07 -0.39347710E-08  0.26475928E-07
  0.66499079E-06  0.26997036E-07 -0.74140325E-08  0.50594074E-08 -0.20523274E-07
 -0.32688375E-07 -0.68937290E-08 -0.54534451E-07 -0.67548942E-07  0.54878152E-06
  0.32625199E-07 -0.14083571E-07  0.60130945E-07 -0.88409768E-09 -0.34571744E-07
 -0.13513389E-07 -0.31211356E-07  0.66497591E-07  0.53924274E-06  0.13767000E-07
  0.28229750E-07 -0.36128464E-07 -0.12551538E-07 -0.86413398E-08 -0.45775963E-08
  0.11346424E-08  0.33918417E-07  0.61384603E-06 -0.60391773E-08 -0.28905145E-07
  0.88819095E-07 -0.19001259E-08  0.57053364E-08  0.46732594E-08  0.77222670E-09
 -0.26625472E-07  0.62489138E-06  0.14459963E-07 -0.10375097E-07 -0.37231806E-07
  0.24432897E-07  0.27558614E-07  0.21132688E-07  0.16549882E-07  0.67267213E-08
  0.43198666E-06  0.22449309E-07  0.40418438E-07 -0.46164683E-07  0.37419983E-08
 -0.56886193E-07 -0.11785606E-07  0.28118986E-07  0.50660858E-08  0.52598409E-06
  0.19946681E-09 -0.45510539E-08 -0.70654750E-07  0.14371600E-07  0.77064595E-08
 -0.25425222E-08 -0.27161041E-07 -0.70570579E-08  0.70500440E-06 -0.66184752E-07
 -0.11085363E-07  0.31798014E-07 -0.41005977E-08 -0.73955452E-08  0.18671968E-07
  0.10547537E-07  0.32891805E-07  0.39403953E-06 -0.17613409E-07 -0.29974431E-07
  0.68925978E-07 -0.23965648E-07  0.45528542E-07  0.83633242E-08  0.20696570E-07
 -0.12954970E-05  0.56577335E-05 -0.56799522E-06  0.58680940E-05 -0.52981253E-05
 -0.12491281E-06  0.40276457E-05 -0.20937102E-06 -0.99222801E-06  0.16647224E-05
 -0.81950998E-05  0.84072251E-06 -0.14373716E-05  0.78490339E-05  0.16674197E-05
 -0.53040949E-06  0.48505227E-05 -0.39043964E-05 -0.15303289E-05  0.12789008E-04
 -0.81443902E-06  0.21184823E-05  0.14481086E-04 -0.36286585E-05 -0.22639511E-05
  0.51172244E-06  0.20582155E-05 -0.36323233E-05  0.91072218E-05  0.23454932E-05
 -0.34820659E-05  0.49355408E-05 -0.20198000E-05 -0.39660678E-05 -0.76437495E-06
 -0.28053172E-05 -0.31829777E-05  0.89258643E-05 -0.16284488E-05 -0.71634679E-06
  0.57185083E-05 -0.29414322E-05 -0.61661746E-06  0.11802587E-05  0.35905954E-05
 -0.14629181E-06 -0.90389635E-06 -0.51309554E-06 -0.35937930E-05  0.83366745E-06
  0.11838640E-05 -0.12196819E-05  0.14157668E-05 -0.38496231E-05  0.83141452E-06
 -0.68550686E-05 -0.15837339E-05  0.23814488E-05  0.34524026E-05 -0.11166839E-05
  0.65414527E-06  0.53536854E-05 -0.20785418E-05 -0.44664959E-06 -0.11683755E-04
 -0.22884319E-05  0.19946533E-05  0.50342003E-05 -0.13063778E-05 -0.42480456E-06
 -0.38566520E-06 -0.80482157E-06  0.46504929E-05 -0.10276128E-04 -0.37762115E-06
 -0.58793579E-06 -0.35444963E-05  0.13718624E-05  0.29342897E-05  0.23202612E-05
  0.23610554E-05  0.30729441E-05 -0.65199474E-05  0.20499095E-05 -0.27542519E-04
  0.13395577E-03 -0.24183530E-04 -0.59822959E-05 -0.73620073E-05 -0.82148237E-05

 -0.66765677E-07  0.27580203E-06  0.90836424E-07  0.41528288E-09 -0.35388023E-08
  0.28758323E-07  0.14808367E-07 -0.14584546E-07  0.46202580E-07  0.61867364E-07
  0.24550625E-06 -0.31623335E-07  0.32162064E-07  0.20691936E-07 -0.59685715E-07
  0.21293776E-08  0.10526094E-07 -0.10957494E-07 -0.37991909E-07  0.30019735E-06
  0.37536167E-07 -0.25404717E-07 -0.14967843E-07  0.46931228E-07 -0.35860758E-08
  0.10827906E-07  0.21538798E-07 -0.55350083E-07  0.29667144E-06 -0.33750079E-07
  0.22754670E-07  0.20193610E-07 -0.47779632E-07 -0.14290705E-07 -0.31608966E-08
  0.60776269E-08  0.82507033E-08  0.24937335E-06 -0.19732174E-07  0.85001905E-08
 -0.98231603E-08  0.58229919E-07 -0.10329160E-07  0.12659407E-08 -0.49393265E-08
 -0.24282153E-07  0.35923079E-06 -0.10274467E-06  0.43481010E-07  0.40977396E-07
 -0.10138815E-06 -0.11094333E-07  0.11500477E-07 -0.11320221E-07  0.19665355E-07
  0.28953843E-06 -0.10118239E-06 -0.20417913E-07 -0.30363326E-08  0.51829208E-07
 -0.40970338E-08  0.11068584E-07 -0.13856843E-07  0.26044814E-07  0.27938015E-06
  0.11502972E-06 -0.79712891E-08  0.92982627E-08  0.96713577E-08 -0.10177640E-07
 -0.10503935E-07  0.14361777E-08  0.79184286E-08  0.30461474E-06 -0.38392156E-07
  0.44045857E-08 -0.13608017E-08  0.34348137E-07 -0.68309659E-08  0.14814999E-08
 -0.15483736E-08  0.13622200E-07  0.28132043E-06 -0.17085648E-07  0.20412257E-07
  0.40122656E-08 -0.10539586E-07 -0.14672779E-08  0.78184015E-08  0.30061425E-07
  0.85541484E-08  0.31918228E-06  0.10280089E-07  0.11334656E-07  0.25958118E-07
  0.36174505E-07 -0.93010292E-08 -0.21424351E-07 -0.79262384E-08  0.21688352E-07
  0.31247743E-06 -0.97960302E-07  0.77078246E-08  0.25115175E-07 -0.19342779E-07
  0.17125498E-07  0.20139960E-07  0.10431167E-07  0.29095855E-07  0.26488233E-06
  0.12218195E-07  0.58311695E-07  0.16091247E-07 -0.53393246E-07 -0.21377511E-07
  0.95309059E-08 -0.12880434E-07  0.28186868E-07  0.26746120E-06  0.55570319E-08
  0.18011220E-07  0.33462555E-08 -0.16432736E-07  0.16254610E-07 -0.10328494E-07
 -0.14283651E-07  0.23332186E-07  0.31417079E-06 -0.53379645E-07  0.17210120E-07
 -0.87019883E-08  0.67317984E-08 -0.28412941E-07 -0.36686839E-07  0.25920480E-07
  0.53248437E-06 -0.47051893E-05  0.11392382E-04 -0.17377612E-05  0.35482820E-06
  0.75269548E-05 -0.15172059E-06 -0.15654116E-05 -0.48216966E-05  0.10734545E-05
 -0.38119205E-06 -0.26454609E-05  0.16644138E-05  0.19038124E-05 -0.45358983E-05
 -0.29243492E-05 -0.10783273E-05 -0.18051144E-05  0.36575629E-05 -0.10250301E-05
  0.32951358E-05  0.97054532E-06 -0.22464919E-05 -0.30328471E-05  0.61894033E-07
  0.41814752E-06 -0.33763766E-05  0.14036084E-05 -0.32386958E-05 -0.93023648E-05
  0.19104922E-05 -0.14306330E-05  0.35863762E-05  0.14831336E-05 -0.18961051E-06
  0.37441822E-06 -0.10734963E-05 -0.26711998E-05  0.18085158E-05  0.98290063E-06
  0.35642042E-07  0.73013687E-05  0.50363755E-06 -0.45361181E-06 -0.25036973E-05
 -0.11629342E-05 -0.24647421E-05 -0.31181938E-05  0.85458488E-06 -0.59520341E-06
 -0.16315697E-05  0.75103504E-06  0.23571216E-06  0.30286245E-05 -0.52153918E-06
 -0.35733095E-06  0.37474558E-05 -0.11873860E-05 -0.11508981E-05  0.40081931E-05
  0.64633210E-06  0.10203343E-06  0.15496153E-05  0.23578435E-05  0.45990255E-05
  0.22082806E-05  0.26624047E-05 -0.72459323E-06 -0.86020749E-07  0.78899159E-06
  0.56148256E-06  0.33929643E-05 -0.15417362E-05  0.28795812E-05  0.50023517E-05
  0.10054173E-05 -0.60579696E-06 -0.37159959E-05  0.98223228E-07 -0.25868950E-05
  0.14852290E-05  0.12764607E-05  0.30049643E-05 -0.45535330E-05 -0.28130282E-04
 -0.24183530E-04  0.77248541E-04  0.16280801E-06  0.84778880E-05 -0.67863618E-05

 -0.35565591E-07 -0.79198656E-06  0.20964537E-07 -0.24764061E-07  0.12314873E-07
 -0.14922072E-07 -0.66085244E-08 -0.21279470E-08  0.55885276E-08 -0.10198517E-06
 -0.57458417E-06 -0.16363805E-07 -0.25117637E-07 -0.62158638E-08  0.54540757E-08
 -0.19503955E-07 -0.46819867E-08  0.24512352E-07 -0.39487278E-07 -0.74977217E-06
  0.10535987E-06 -0.19022751E-07 -0.15678336E-07 -0.52594689E-09  0.16923253E-07
  0.34838169E-07  0.76983397E-08 -0.77675756E-07 -0.45602291E-06  0.71328033E-07
  0.43340721E-07  0.21763637E-07 -0.72112432E-08  0.27153028E-07 -0.10794239E-07
  0.39285577E-07 -0.49685798E-07 -0.75403476E-06 -0.38457278E-08  0.52977990E-08
  0.42297474E-07 -0.11232032E-07  0.14032878E-07  0.64277628E-08  0.20824737E-07
 -0.41700867E-08 -0.61248941E-06  0.10116889E-10 -0.42793804E-08 -0.21328893E-07
 -0.89011515E-08  0.42746870E-07  0.31621998E-07  0.90948269E-08 -0.48495254E-07
 -0.71668205E-06 -0.17639765E-07  0.84097074E-08 -0.12293039E-07 -0.33596949E-08
  0.31396136E-08 -0.17859380E-07  0.42370283E-08 -0.95429102E-08 -0.68412165E-06
  0.17972865E-07  0.17973376E-07  0.98283270E-08  0.14063313E-08  0.38249365E-07
  0.30343623E-07 -0.60638241E-08 -0.11675072E-06 -0.67993458E-06 -0.11115777E-08
 -0.48354851E-08  0.31765004E-07  0.20852609E-07 -0.88748154E-07 -0.19879253E-07
  0.86247830E-08  0.92319526E-07 -0.66154627E-06  0.49328646E-07  0.36530893E-07
 -0.11370445E-08  0.40209189E-08  0.32780127E-07  0.11600868E-08  0.13850600E-07
  0.68566046E-07 -0.61197254E-06  0.68946772E-08 -0.38023873E-07 -0.12917064E-07
  0.54251645E-09  0.62876441E-07  0.32958060E-08 -0.37133841E-08  0.35415230E-07
 -0.46408161E-06  0.39364732E-07 -0.51951022E-07  0.11514795E-07  0.51724896E-08
  0.57848349E-07 -0.47840445E-07 -0.66277271E-08  0.43455936E-07 -0.67724062E-06
 -0.69142486E-07 -0.42124216E-07 -0.53729234E-08  0.98446786E-08  0.28416333E-09
 -0.30713107E-08  0.29656709E-07 -0.83563629E-07 -0.78464573E-06 -0.25331448E-07
 -0.37571019E-07 -0.71509541E-09  0.23103940E-07  0.48472733E-07  0.46352244E-08
  0.12445808E-07  0.51289437E-07 -0.71656889E-06 -0.94781066E-07  0.10472880E-07
 -0.24518945E-07  0.19051185E-08  0.16637685E-07 -0.13494116E-07 -0.12215644E-07
  0.14361485E-05 -0.15171495E-05  0.11241379E-05 -0.40726502E-06 -0.29321240E-05
  0.13509138E-06  0.14704016E-05  0.62630088E-06  0.19352973E-05 -0.35670274E-05
 -0.81102679E-06  0.80150603E-06 -0.35782818E-05 -0.41205326E-05  0.31107479E-05
  0.14948038E-05 -0.13307312E-06  0.27298406E-05  0.32247767E-05 -0.19122061E-05
  0.10773868E-05 -0.37100278E-06 -0.12698701E-05 -0.80902702E-06 -0.90066314E-06
 -0.46683974E-05  0.77409706E-05 -0.50236184E-05 -0.20750962E-05 -0.33405531E-05
  0.47318282E-05  0.26513723E-05 -0.13502241E-05  0.77085274E-05 -0.15621340E-05
 -0.27133834E-05  0.15161039E-05  0.85325494E-05  0.99880462E-06  0.25260585E-05
 -0.91077899E-06 -0.29249137E-05  0.40915994E-05 -0.65717125E-06  0.20232628E-05
  0.39343637E-05  0.95505145E-05  0.12768740E-05 -0.15783992E-05  0.21772010E-05
 -0.63792398E-07  0.43856331E-05  0.42182293E-05 -0.13851113E-05 -0.16108506E-05
  0.12058213E-05 -0.34225235E-05 -0.69931143E-06 -0.19645432E-05 -0.15058308E-05
 -0.29037545E-05 -0.22823773E-05  0.18902769E-06 -0.27209938E-05  0.75344713E-06
 -0.23070715E-05 -0.42459382E-05 -0.16044088E-05 -0.67981574E-06  0.14283815E-05
 -0.19384522E-05 -0.19560652E-05 -0.54969384E-05  0.35643078E-05 -0.65443122E-06
  0.36402572E-05  0.19115033E-05 -0.23186291E-05  0.49177674E-05  0.20064271E-05
 -0.42352958E-06  0.77470428E-05 -0.73554775E-05 -0.20808937E-05 -0.90986783E-05
 -0.59822959E-05  0.16280801E-06  0.92424187E-04 -0.60656865E-05  0.16463195E-05

  0.83325766E-07  0.77564482E-06 -0.13397398E-06 -0.75298005E-08 -0.94760615E-11
 -0.19925243E-07  0.12010860E-07 -0.10654594E-07  0.14704792E-10  0.22986445E-06
  0.74186677E-06  0.14105146E-07  0.36822873E-09 -0.10070101E-07  0.12400274E-07
 -0.33476428E-07  0.19448418E-08  0.11930629E-07 -0.53159042E-07  0.82822011E-06
 -0.25819563E-07  0.15314334E-07 -0.20280356E-08  0.73775659E-09 -0.31444204E-08
  0.26599641E-07 -0.49446414E-08 -0.62155637E-07  0.88384246E-06 -0.46052721E-07
  0.24312907E-07 -0.90061828E-08  0.32264812E-08  0.22963253E-07 -0.36885474E-07
  0.28799982E-08  0.56263053E-07  0.90290692E-06 -0.13225668E-07 -0.17163195E-07
  0.57461029E-08 -0.81417948E-08 -0.13066489E-07  0.28622763E-07  0.41897664E-08
  0.21321485E-06  0.81758104E-06 -0.14527721E-07  0.86455960E-08  0.25897030E-07
  0.12900072E-07 -0.99393401E-08  0.40900674E-07 -0.37774259E-08 -0.96146344E-07
  0.82886192E-06 -0.15389678E-07 -0.22396969E-07 -0.23677843E-08  0.56845734E-08
 -0.21188326E-07 -0.19097140E-07 -0.17567393E-07 -0.14858735E-07  0.81672749E-06
  0.25696042E-07 -0.29685001E-07 -0.89631276E-08 -0.92358448E-08 -0.53263701E-08
 -0.28299158E-07 -0.20593565E-07 -0.38025164E-07  0.78124060E-06 -0.10701695E-07
 -0.56646180E-08  0.25161269E-09 -0.15980776E-08 -0.59202326E-09 -0.20086925E-07
 -0.73195076E-08 -0.82167927E-07  0.81534839E-06  0.29623981E-08 -0.33422487E-08
 -0.95559134E-08  0.18456504E-07  0.26409447E-07  0.15814224E-07  0.14663499E-07
 -0.32359242E-07  0.88347890E-06 -0.30755554E-07  0.31486084E-07  0.94429185E-08
 -0.26283988E-08  0.19813042E-07  0.11220853E-07 -0.73532358E-08  0.10068580E-07
  0.90353162E-06  0.34280048E-07 -0.44168696E-07 -0.60080658E-08  0.93518621E-08
 -0.10719528E-08 -0.20803254E-07 -0.23897900E-07  0.13548925E-06  0.81795338E-06
  0.69675395E-07  0.14455074E-07 -0.11846571E-08  0.51996752E-08 -0.85746261E-08
  0.94553588E-08 -0.17853096E-07 -0.88651335E-08  0.82555426E-06  0.86782284E-07
 -0.21238773E-07  0.29307303E-07 -0.19020312E-07 -0.77969665E-08 -0.18059466E-07
  0.45411018E-08 -0.52405332E-07  0.77596502E-06  0.67262625E-08 -0.11238652E-07
  0.10609975E-07 -0.49647818E-07 -0.52402481E-08  0.23773197E-07 -0.13250532E-07
 -0.40497961E-05 -0.73979340E-05  0.17777874E-05 -0.53283230E-05  0.15383948E-05
  0.15889973E-05 -0.20094758E-05  0.85632718E-08 -0.49064906E-05  0.57955390E-05
 -0.34357626E-05 -0.30678678E-05  0.44137247E-05  0.27201602E-05 -0.47753374E-06
 -0.16903899E-05  0.35470203E-05 -0.11660642E-05  0.30584826E-05 -0.13649045E-05
  0.21339554E-05 -0.48246384E-05  0.28782632E-07 -0.56655119E-06  0.41598405E-05
 -0.40506678E-05  0.49473349E-06  0.40191480E-05 -0.12917790E-05  0.72099738E-06
  0.46032611E-05 -0.75180661E-06 -0.32028485E-06  0.10500075E-05  0.29143129E-05
  0.64877292E-06  0.27769370E-05 -0.18686780E-05  0.19984008E-05 -0.12106837E-05
  0.22944074E-05 -0.71297628E-06 -0.10233031E-06  0.13894359E-05  0.27617132E-05
 -0.56138568E-05 -0.11128082E-05  0.15643758E-05 -0.60710694E-05  0.26942176E-05
  0.19193976E-06  0.56491380E-06  0.36873657E-05  0.84805339E-06 -0.16071302E-05
  0.28982193E-06  0.43088401E-08 -0.47907237E-05  0.21343293E-05 -0.33084977E-06
  0.71479337E-06 -0.94014105E-06 -0.37835874E-06  0.52241722E-05  0.22898602E-05
  0.50371021E-05  0.37861815E-05 -0.70169523E-06 -0.67638906E-06 -0.10671744E-05
  0.31555251E-05  0.16106872E-05  0.16330888E-05 -0.93152147E-06  0.50953946E-06
 -0.22648640E-05  0.19869292E-05 -0.23092370E-05 -0.39953165E-06 -0.37415437E-05
 -0.15340871E-05  0.16817140E-05  0.24249820E-05  0.40399202E-05  0.78721551E-05
 -0.73620073E-05  0.84778880E-05 -0.60656865E-05  0.71433152E-04 -0.35642100E-05

  0.52793049E-07 -0.10317108E-05 -0.82927452E-07 -0.15330032E-07 -0.64863502E-08
 -0.11913800E-07  0.15554955E-07 -0.29597388E-07  0.12004980E-07 -0.47145435E-07
 -0.94632027E-06 -0.60003709E-07 -0.36142278E-08 -0.30207965E-07  0.85778467E-08
  0.26422344E-07  0.51532566E-09  0.12948494E-07  0.97067525E-07 -0.98721283E-06
  0.53468321E-08  0.23373481E-07  0.13765080E-07 -0.16605085E-07  0.13442107E-07
 -0.12228870E-07  0.18520015E-07  0.55491419E-07 -0.11437712E-05 -0.95757007E-07
  0.11482990E-08  0.93519116E-09 -0.10139234E-08  0.22146852E-07 -0.18184721E-08
  0.14260160E-07  0.20094160E-08 -0.88173027E-06  0.97423460E-08 -0.30534553E-09
  0.28373404E-07 -0.56090854E-08  0.25164160E-07  0.36369012E-08  0.69977797E-08
 -0.28315392E-07 -0.78290850E-06 -0.10395356E-06 -0.10116646E-07  0.15342224E-07
  0.15179947E-07 -0.11105536E-07 -0.41389321E-08  0.25724963E-07 -0.25538246E-07
 -0.10517474E-05  0.80025786E-07  0.76695851E-08 -0.26475679E-07  0.38420951E-09
  0.95620845E-08  0.28942560E-08 -0.59300818E-08  0.21854725E-07 -0.10650359E-05
 -0.39672123E-07  0.11512113E-07  0.52895750E-08  0.13939793E-07 -0.47522379E-08
  0.16258870E-07 -0.72198908E-08  0.68718257E-08 -0.92828780E-06  0.31897617E-07
 -0.52037002E-08 -0.30004405E-07  0.92064865E-08  0.11814837E-07  0.29869661E-07
 -0.25551672E-07  0.20384746E-07 -0.10173516E-05  0.12908104E-06 -0.48561018E-08
 -0.19180840E-07  0.22305097E-07 -0.13367095E-08  0.53094856E-08 -0.21795510E-07
  0.24501808E-07 -0.11214964E-05  0.75419870E-07 -0.12507359E-07  0.15241087E-07
 -0.12605713E-07  0.14559850E-09 -0.89360083E-08  0.24893584E-08 -0.18984868E-08
 -0.97311947E-06 -0.44309759E-07 -0.99694209E-08 -0.25694396E-07 -0.57949135E-08
 -0.22793889E-07  0.63701812E-08  0.14117289E-07 -0.92657882E-07 -0.96279247E-06
  0.37470638E-07 -0.20157619E-07  0.33457610E-07 -0.17699675E-07  0.19216889E-07
 -0.41272019E-08  0.10152629E-07 -0.20192038E-07 -0.10357793E-05  0.11087454E-06
  0.66741760E-08 -0.58249296E-08 -0.37398789E-08  0.12214203E-07  0.37520119E-08
  0.13475804E-07 -0.47874663E-07 -0.93590946E-06  0.66804635E-09  0.14425408E-07
 -0.47040859E-07 -0.13671343E-08 -0.10810522E-08  0.85369692E-08 -0.16684233E-07
  0.97393253E-06  0.39578623E-05  0.40037142E-06 -0.90352363E-06 -0.20912855E-05
  0.49166894E-06  0.35779649E-06 -0.15822162E-05 -0.15743243E-05 -0.21170980E-05
  0.65162360E-05 -0.38271949E-05 -0.18872923E-05  0.12566454E-05 -0.11444185E-05
  0.15747041E-05 -0.53489661E-06  0.34376370E-05  0.64218859E-06 -0.38289210E-05
  0.27355612E-05 -0.24306287E-05 -0.22748383E-05 -0.26512892E-06  0.55329777E-05
 -0.15478181E-05  0.95465378E-06 -0.51457053E-05  0.42484744E-05  0.24286874E-05
 -0.88699136E-06  0.20744468E-05 -0.84226699E-06 -0.26524672E-05  0.15146323E-05
  0.95449347E-06  0.85788988E-06  0.73507153E-05 -0.26562847E-05 -0.13583245E-05
 -0.17322144E-05  0.13914552E-05  0.24691263E-05  0.12772792E-05 -0.26063243E-05
 -0.55116784E-06  0.44103499E-06  0.31010150E-05  0.54422674E-05 -0.27135009E-05
 -0.28425991E-05 -0.84585229E-06 -0.10704479E-06  0.93791573E-06 -0.27908911E-05
  0.19109874E-05  0.76035402E-06 -0.26493955E-06 -0.45046254E-05  0.35611178E-06
  0.14476583E-05 -0.21685945E-05  0.36053860E-06 -0.28452255E-05  0.19586518E-06
 -0.10357578E-05 -0.36499949E-05  0.10438538E-05  0.46718559E-05 -0.16469651E-05
 -0.11337839E-05 -0.39727965E-05 -0.61953016E-06 -0.61907140E-05  0.52478281E-06
  0.83801022E-06  0.37585639E-08 -0.18957039E-05  0.12243940E-06 -0.34430795E-06
  0.38132011E-05 -0.29071352E-05  0.26363326E-06  0.12455987E-05  0.12854887E-05
 -0.82148237E-05 -0.67863618E-05  0.16463195E-05 -0.35642100E-05  0.61869617E-04

;

# ===========
# Reflections
# ===========

_diffrn_radiation_wavelength        0.353200

_shelx_F_calc_maximum               91.559423

_reflns_d_resolution_high           10.854359
_reflns_d_resolution_low            0.400036
_reflns_limit_h_max                 18
_reflns_limit_h_min                 -18
_reflns_limit_k_max                 13
_reflns_limit_k_min                 -13
_reflns_limit_l_max                 27
_reflns_limit_l_min                 0
_reflns_number_gt                   13821
_reflns_number_total                13821
_reflns_threshold_expression        'F>0 & F/u(F)>4.0 & |F_calc|>10^-3'

_reflns_special_details
;
* Specify symmetry and Friedel pair averaging *

. Only reflections which satisfy the threshold expression
  are listed below, and only they are considered observed,
  thus the *_gt, *_all, & *_total data are always the same
;

# ============
# Bond lengths
# ============

loop_
 _geom_bond_atom_site_label_1
 _geom_bond_site_symmetry_1
 _geom_bond_atom_site_label_2
 _geom_bond_site_symmetry_2
 _geom_bond_distance
 _geom_bond_publ_flag
   O3  .   C1  .  1.2446(2)  yes
   O2  .   C4  .  1.2956(2)  yes
   O1  .   C1  .  1.2884(2)  yes
   O4  .   C4  .  1.2366(2)  yes
   O2  .   H1  .   1.235(9)  yes
   O1  .   H1  .   1.194(9)  yes
   N2  .   C8  .  1.3557(2)   yes
   N2  .   C7  .  1.3573(3)   yes
   N1  .   C5  .  1.3392(2)   yes
   N2  .   H8  .    1.063(6)  yes
   N1  .   H4  .    1.025(5)  yes
   N1  .   H5  .    1.031(5)  yes
   C1  .   C2  .  1.5009(2)   yes
   C5  .   C6  .  1.4239(2)   yes
   C5  .   C9  .  1.4252(2)   yes
   C6  .   C7  .  1.3708(3)   yes
   C4  .   C3  .  1.5008(2)   yes
   C2  .   C3  .  1.3481(3)   yes
   C8  .   C9  .  1.3735(3)   yes
   C6  .   H6  .    1.076(5)  yes
   C2  .   H2  .    1.109(5)  yes
   C8  .   H9  .    1.099(5)  yes
   C3  .   H3  .    1.092(5)  yes
   C9  .  H10  .    1.097(5)  yes
   C7  .   H7  .    1.103(5)  yes

# ===========
# Bond Angles
# ===========

loop_
 _geom_angle_atom_site_label_1
 _geom_angle_site_symmetry_1
 _geom_angle_atom_site_label_2
 _geom_angle_site_symmetry_2
 _geom_angle_atom_site_label_3
 _geom_angle_site_symmetry_3
 _geom_angle
 _geom_angle_publ_flag
   O3  .  C1  .   O1  .     122.848(17)  yes
   O2  .  C4  .   O4  .     123.499(17)  yes
   O3  .  C1  .   C2  .     116.637(14)  yes
   O2  .  C4  .   C3  .     118.943(17)  yes
   O1  .  C1  .   C2  .     120.508(16)  yes
   O4  .  C4  .   C3  .     117.558(16)  yes
   O2  .  H1  .   O1  .        175.8(6)  yes
   N2  .  C8  .   C9  .     121.406(17)  yes
   N2  .  C7  .   C6  .     121.320(15)  yes
   N1  .  C5  .   C6  .     120.938(15)  yes
   N1  .  C5  .   C9  .     121.538(15)  yes
   N2  .  C8  .   H9  .        116.1(3)  yes
   N2  .  C7  .   H7  .        116.2(3)  yes
   C1  .  O1  .   H1  .        110.7(3)  yes
   C4  .  O2  .   H1  .        112.5(3)  yes
   C8  .  N2  .   C7  .     120.594(16)  yes
   C5  .  N1  .   H4  .        119.4(3)  yes
   C5  .  N1  .   H5  .        120.6(3)  yes
   C8  .  N2  .   H8  .        120.6(3)  yes
   C7  .  N2  .   H8  .        118.8(3)  yes
   C1  .  C2  .   C3  .     130.655(15)  yes
   C5  .  C6  .   C7  .     119.675(16)  yes
   C5  .  C9  .   C8  .     119.476(15)  yes
   C6  .  C5  .   C9  .     117.524(15)  yes
   C4  .  C3  .   C2  .     130.342(16)  yes
   C1  .  C2  .   H2  .        112.8(3)  yes
   C5  .  C6  .   H6  .        120.9(3)  yes
   C5  .  C9  .  H10  .        120.4(3)  yes
   C6  .  C7  .   H7  .        122.5(3)  yes
   C4  .  C3  .   H3  .        112.4(3)  yes
   C2  .  C3  .   H3  .        117.3(3)  yes
   C8  .  C9  .  H10  .        120.1(3)  yes
   C3  .  C2  .   H2  .        116.6(3)  yes
   C9  .  C8  .   H9  .        122.5(3)  yes
   C7  .  C6  .   H6  .        119.4(3)  yes
   H4  .  N1  .   H5  .        119.8(4)  yes
